!RI BP86 def2-SVP def2/J D3BJ TIGHTSCF TightOpt Grid5 FinalGrid6 freq
%maxcore 950
%pal nprocs 16
end
* xyz 0 1 
O 6.26213 -0.10038 -3.07994 
C 5.3297 0.42474 -2.47098 
C 5.27876 1.93496 -2.17156 
C 6.17065 2.24004 -0.96335 
C 5.4661 3.39621 -0.26964 
C 3.99586 3.06938 -0.46536 
N 3.94665 2.43518 -1.77741 
C 2.89481 2.46824 -2.6789 
O 3.01995 1.95435 -3.79683 
N 4.31442 -0.30431 -1.89799 
C 4.13203 -1.7468 -2.06207 
C 2.94334 -2.04444 -3.01558 
N 2.77189 -1.12278 -4.02402 
C 1.75771 -1.14839 -5.09049 
C 0.40544 -0.62067 -4.56507 
N -0.01882 -1.16598 -3.37711 
C -1.20422 -0.70929 -2.67048 
C -1.3473 -1.41738 -1.31327 
C -2.34995 -0.70726 -0.39475 
C -1.91342 0.71389 -0.08341 
N -0.68356 0.85216 0.51879 
C -0.20758 2.1422 1.04006 
C 0.28373 3.05985 -0.10133 
N 0.98738 2.42855 -1.10286 
C 1.58361 3.15333 -2.22506 
C 0.58063 3.26146 -3.36798 
O 0.19086 4.28816 -0.04664 
C 0.92044 1.88797 2.05435 
C 1.47469 3.13974 2.76267 
C 2.64161 2.74264 3.67153 
C 0.40703 3.86661 3.58047 
O -2.62991 1.68341 -0.33739 
C -2.57978 -1.47912 0.89844 
C -3.66769 -0.94572 1.82133 
C -3.93321 -1.87185 3.00648 
C -5.03984 -1.32038 3.90612 
C -5.30457 -2.24683 5.094 
C -6.41101 -1.6947 5.99428 
C -6.67589 -2.6212 7.18216 
C -7.78177 -2.0687 8.08292 
C -8.04633 -2.9945 9.26998 
C -9.1452 -2.44889 10.16792 
O -1.9261 -2.49224 1.17714 
O -1.76843 -2.77307 -1.58509 
O -0.2928 0.16757 -5.20627 
C 1.61841 -2.51275 -5.77538 
C 0.91735 -2.41267 -7.12424 
O 2.267 -3.07178 -2.95125 
C 3.99406 -2.47095 -0.70418 
C 5.30066 -2.39811 0.09245 
C 2.83754 -1.93759 0.14811 
H 5.5938 2.48354 -3.06651 
H 7.19242 2.49486 -1.26146 
H 6.23014 1.38162 -0.28231 
H 5.73987 3.49229 0.78454 
H 5.7132 4.33649 -0.77715 
H 3.65707 2.33129 0.26861 
H 3.36792 3.9594 -0.40109 
H 3.58225 0.22105 -1.42807 
H 5.01272 -2.14689 -2.58121 
H 3.30231 -0.25647 -3.94246 
H 2.11701 -0.4124 -5.82104 
H 0.49186 -1.97056 -3.01107 
H -2.06621 -0.91511 -3.3152 
H -1.10677 0.37512 -2.56257 
H -0.36451 -1.48951 -0.83448 
H -3.32201 -0.67284 -0.90419 
H -0.1372 0.02332 0.73923 
H -1.06493 2.63056 1.51569 
H 1.02641 1.41275 -1.09264 
H 1.83024 4.17274 -1.90862 
H -0.31822 3.80102 -3.05083 
H 1.01359 3.7924 -4.22223 
H 0.2659 2.27265 -3.71189 
H 1.74887 1.37666 1.54523 
H 0.55725 1.18152 2.81376 
H 1.8693 3.83624 2.01385 
H 3.43573 2.25633 3.09492 
H 3.07511 3.62409 4.15585 
H 2.31775 2.04975 4.45561 
H -0.37874 4.27481 2.93806 
H -0.06087 3.19533 4.30844 
H 0.84453 4.70746 4.12959 
H -4.58364 -0.82971 1.2314 
H -3.35818 0.03958 2.18547 
H -3.01257 -1.99813 3.58978 
H -4.21484 -2.86729 2.64111 
H -5.96074 -1.19848 3.32296 
H -4.75458 -0.32646 4.27184 
H -4.38354 -2.36909 5.67689 
H -5.59016 -3.24064 4.72825 
H -7.33201 -1.57227 5.41139 
H -6.12524 -0.70095 6.36006 
H -5.75475 -2.74411 7.76474 
H -6.96222 -3.61479 6.81634 
H -8.70302 -1.94567 7.5005 
H -7.49569 -1.07499 8.44866 
H -7.12941 -3.11749 9.85806 
H -8.33667 -3.98834 8.90984 
H -9.31774 -3.12627 11.01011 
H -8.8719 -1.46848 10.57094 
H -10.08577 -2.3445 9.61768 
H -1.72087 -3.23557 -0.71809 
H 1.05556 -3.21311 -5.14816 
H 2.61197 -2.94952 -5.93405 
H 0.87219 -3.39823 -7.59857 
H -0.10789 -2.04649 -7.01447 
H 1.45532 -1.73797 -7.7977 
H 3.79372 -3.53255 -0.90042 
H 6.13456 -2.80385 -0.4899 
H 5.54834 -1.36811 0.37006 
H 5.22322 -2.98366 1.01487 
H 1.89118 -1.98154 -0.3971 
H 2.7225 -2.5402 1.05573 
H 3.00363 -0.90147 0.46069 
*