!RI BP86 def2-SVP def2/J D3BJ TIGHTSCF TightOpt Grid5 FinalGrid6 freq
%maxcore 950
%pal nprocs 16
end
* xyz 0 1 
O 0.2115 0.38382 -0.15934 
C -0.53476 1.32152 -0.46163 
C -0.35093 2.77081 0.05673 
C -0.1278 3.77022 -1.08019 
C 1.37631 3.69367 -1.31543 
C 1.93945 3.53206 0.08741 
N 0.88542 2.86131 0.84086 
C 0.95155 2.41324 2.14867 
O -0.06609 2.03676 2.73961 
N -1.59203 1.13543 -1.32185 
C -1.97996 -0.16952 -1.88783 
C -1.10084 -0.59291 -3.10721 
N 0.23377 -0.27363 -2.99728 
C 1.28132 -0.72185 -3.91944 
C 1.99279 -1.9382 -3.27612 
N 1.13413 -2.93801 -2.87536 
C 1.54214 -4.13945 -2.16464 
C 0.58174 -4.45995 -1.00256 
C 0.47211 -3.31661 0.0191 
C 1.83784 -2.99134 0.58629 
N 2.15773 -1.65556 0.58447 
C 3.34907 -1.11174 1.25298 
C 2.77892 -0.11516 2.29863 
N 3.06961 1.21575 2.12932 
C 2.36074 2.32313 2.78343 
C 2.3219 2.22733 4.30324 
O 2.00073 -0.50435 3.17618 
C 4.32402 -0.58646 0.19339 
C 5.73191 -0.24641 0.72414 
C 6.52341 0.49363 -0.35771 
C 6.50221 -1.49553 1.15816 
O 2.59049 -3.85357 1.04036 
C -0.47353 -3.68564 1.15275 
C -0.90939 -2.56347 2.07714 
C -2.37495 -2.22365 1.82844 
C -2.73875 -0.85847 2.4113 
C -4.20983 -0.52345 2.15746 
C -4.622 0.84639 2.70562 
C -3.94856 2.01009 1.9731 
C -4.50048 3.38157 2.37182 
C -4.19789 3.75469 3.82349 
C -4.66483 5.16691 4.14154 
O -0.93104 -4.82712 1.29501 
O -0.71791 -4.72255 -1.585 
O 3.2154 -2.05085 -3.1856 
C 2.27012 0.41027 -4.21182 
C 1.62361 1.5722 -4.95372 
O -1.49616 -1.31563 -4.02325 
C -3.50424 -0.19623 -2.15383 
C -3.92904 0.64629 -3.36042 
C -4.05029 -1.62151 -2.27828 
H -1.21978 3.02957 0.66988 
H -0.3907 4.77986 -0.74086 
H -0.69196 3.56199 -1.9928 
H 1.61427 2.80966 -1.91847 
H 1.77384 4.5732 -1.82913 
H 2.86692 2.95711 0.08853 
H 2.12199 4.50257 0.56115 
H -2.14626 1.94504 -1.58456 
H -1.75638 -0.90938 -1.109 
H 0.54527 0.11959 -2.11337 
H 0.82234 -1.07063 -4.85213 
H 0.14828 -2.85298 -3.12166 
H 2.57462 -4.0395 -1.8167 
H 1.50898 -4.94811 -2.90315 
H 0.91526 -5.39055 -0.52676 
H 0.02823 -2.44336 -0.47172 
H 1.47283 -0.97644 0.23929 
H 3.81985 -1.9155 1.82744 
H 3.73185 1.48218 1.41142 
H 2.91633 3.2321 2.5275 
H 3.32739 2.07905 4.71053 
H 1.91311 3.15057 4.72855 
H 1.68887 1.4098 4.66019 
H 3.88831 0.2893 -0.30546 
H 4.42846 -1.34285 -0.59727 
H 5.65316 0.41862 1.59116 
H 6.01284 1.41784 -0.64882 
H 7.52019 0.76534 0.00565 
H 6.64562 -0.12402 -1.25408 
H 6.02416 -1.98459 2.01171 
H 6.57188 -2.22335 0.34267 
H 7.52125 -1.23505 1.46447 
H -0.28067 -1.68579 1.90399 
H -0.7439 -2.87833 3.11296 
H -3.00999 -3.00307 2.26723 
H -2.58153 -2.22493 0.75204 
H -2.09581 -0.09861 1.95468 
H -2.53814 -0.84967 3.48925 
H -4.83603 -1.28869 2.63271 
H -4.42284 -0.56638 1.08281 
H -4.39449 0.88828 3.77666 
H -5.71011 0.94219 2.60591 
H -4.0896 1.88505 0.89253 
H -2.8696 1.99563 2.15708 
H -5.58302 3.40897 2.19807 
H -4.05529 4.13409 1.70888 
H -3.12016 3.68229 4.01023 
H -4.69541 3.05875 4.50725 
H -4.44271 5.4135 5.18452 
H -4.15993 5.90022 3.50461 
H -5.74461 5.26599 3.99122 
H -1.2515 -5.10828 -0.85525 
H 3.09953 0.02824 -4.81944 
H 2.70994 0.78077 -3.27716 
H 2.37176 2.33984 -5.17554 
H 1.18914 1.23813 -5.90126 
H 0.83288 2.03812 -4.35754 
H -3.99477 0.24372 -1.27419 
H -3.56981 1.67641 -3.27635 
H -3.55639 0.23284 -4.30222 
H -5.02179 0.68554 -3.43038 
H -3.75815 -2.22976 -1.41654 
H -5.14519 -1.60781 -2.31555 
H -3.69877 -2.12336 -3.18381 
*