!RI BP86 def2-SVP def2/J D3BJ TIGHTSCF TightOpt Grid5 FinalGrid6 freq
%maxcore 950
%pal nprocs 16
end
* xyz 0 1 
O 3.32722 2.22157 -4.81509 
C 2.72716 2.31306 -3.74231 
C 2.45771 3.6673 -3.03474 
C 3.42203 4.75694 -3.50861 
C 4.59919 4.60189 -2.55171 
C 3.92274 4.3013 -1.22234 
N 2.67299 3.63705 -1.57688 
C 1.73358 3.14229 -0.69817 
O 0.74513 2.53241 -1.13088 
N 2.12464 1.22339 -3.15675 
C 2.14841 -0.12151 -3.72693 
C 0.75763 -0.3452 -4.36914 
N -0.25032 -0.77154 -3.53543 
C -1.59979 -1.10883 -4.00983 
C -2.64002 -0.85389 -2.88851 
N -2.40768 0.28181 -2.14109 
C -3.26107 0.70949 -1.0418 
C -2.52638 0.83478 0.30638 
C -2.07488 -0.49285 0.94316 
C -1.39353 -0.18068 2.26289 
N -0.05534 0.11392 2.17576 
C 0.75194 0.65453 3.27279 
C 1.7195 1.71021 2.67149 
N 1.21974 2.36168 1.56376 
C 1.93634 3.39189 0.81548 
C 1.3988 4.76497 1.19892 
O 2.7885 2.03629 3.18737 
C 1.49804 -0.48329 3.98258 
C 1.99684 -0.14359 5.40191 
C 2.94085 -1.24471 5.89396 
C 0.84259 0.01606 6.39327 
O -2.01433 -0.12083 3.32523 
C -1.21058 -1.34314 0.03097 
C -1.56922 -2.80853 -0.13474 
C -0.63827 -3.73384 0.64384 
C -0.87792 -3.78256 2.15632 
C -2.24916 -4.34701 2.53557 
C -2.42761 -4.53485 4.04552 
C -2.51722 -3.21127 4.80854 
C -2.8195 -3.44369 6.29035 
C -2.97228 -2.12075 7.04039 
C -3.25462 -2.34644 8.51697 
O -0.20969 -0.87923 -0.53591 
O -1.46022 1.79259 0.197 
O -3.65419 -1.53455 -2.72785 
C -1.69311 -2.56929 -4.48612 
C -0.93154 -2.85722 -5.77182 
O 0.53578 -0.05244 -5.5482 
C 2.60017 -1.17281 -2.69129 
C 4.01037 -0.85931 -2.17179 
C 2.58926 -2.58668 -3.28042 
H 1.41623 3.93712 -3.24625 
H 2.96548 5.74436 -3.36492 
H 3.72391 4.6745 -4.55616 
H 5.2222 3.75324 -2.85857 
H 5.23315 5.49172 -2.50742 
H 4.5306 3.65737 -0.58073 
H 3.68809 5.22445 -0.68506 
H 1.50597 1.39411 -2.36301 
H 2.86417 -0.13909 -4.55937 
H -0.05829 -0.88989 -2.53906 
H -1.85676 -0.43284 -4.8346 
H -1.61494 0.86245 -2.40929 
H -4.12021 0.03879 -0.94104 
H -3.63443 1.69655 -1.33702 
H -3.23732 1.29546 1.00494 
H -2.97438 -1.07605 1.17711 
H 0.40492 0.0162 1.26963 
H 0.0772 1.18318 3.95259 
H 0.28423 2.11161 1.2343 
H 2.99892 3.32163 1.06309 
H 1.5304 4.94865 2.27071 
H 1.90233 5.56685 0.65231 
H 0.32754 4.84285 0.97917 
H 2.35174 -0.78566 3.36089 
H 0.8469 -1.36557 4.04792 
H 2.56319 0.79372 5.38181 
H 3.80194 -1.34638 5.22495 
H 3.32288 -1.01237 6.89375 
H 2.43166 -2.21343 5.942 
H 0.19412 0.85526 6.12702 
H 0.22942 -0.89 6.43236 
H 1.22285 0.2078 7.40255 
H -1.46739 -3.0303 -1.20369 
H -2.62335 -2.97493 0.10034 
H 0.40287 -3.43455 0.4694 
H -0.74091 -4.74948 0.24185 
H -0.74352 -2.78658 2.58254 
H -0.09998 -4.41556 2.60148 
H -2.37751 -5.32278 2.05111 
H -3.04863 -3.69866 2.16119 
H -1.60708 -5.14262 4.44541 
H -3.35138 -5.10347 4.21024 
H -3.3048 -2.58816 4.36798 
H -1.57509 -2.65939 4.71773 
H -2.01167 -4.0334 6.74051 
H -3.74192 -4.02842 6.39178 
H -3.79079 -1.53743 6.60273 
H -2.05938 -1.52459 6.93657 
H -3.3616 -1.3873 9.03324 
H -4.18066 -2.91306 8.65731 
H -2.43785 -2.89882 8.99248 
H -0.86744 1.48862 -0.52722 
H -2.74351 -2.83077 -4.66441 
H -1.33381 -3.24406 -3.69943 
H -1.13943 -3.87837 -6.10802 
H -1.23282 -2.17213 -6.57028 
H 0.14892 -2.77584 -5.62828 
H 1.93246 -1.15925 -1.82478 
H 4.03942 0.10687 -1.65754 
H 4.33727 -1.61942 -1.45392 
H 4.73796 -0.8322 -2.99011 
H 1.57873 -2.89728 -3.55974 
H 3.22383 -2.65039 -4.17088 
H 2.95947 -3.31427 -2.54993 
*