!RI BP86 def2-SVP def2/J D3BJ TIGHTSCF TightOpt Grid5 FinalGrid6 freq
%maxcore 950
%pal nprocs 16
end
* xyz 0 1 
O 1.79472 4.31757 -4.10486 
C 1.60427 3.14226 -3.7884 
C 1.84844 1.97718 -4.76503 
C 0.66875 1.88546 -5.73955 
C 0.56517 0.40009 -6.05002 
C 0.91601 -0.25154 -4.72368 
N 1.91315 0.64094 -4.14446 
C 2.96686 0.2862 -3.31904 
O 3.79339 1.13801 -2.97095 
N 1.03582 2.78433 -2.58792 
C 0.65897 3.73795 -1.53973 
C 1.66234 3.61604 -0.35613 
N 2.95201 3.29038 -0.71471 
C 4.10877 3.19474 0.18826 
C 4.01242 1.90621 1.03316 
N 2.93348 1.83869 1.8873 
C 2.5534 0.61812 2.58542 
C 1.88123 -0.35429 1.59979 
C 1.55325 -1.72026 2.20846 
C 1.22114 -2.74441 1.13716 
N 0.44249 -2.29387 0.09828 
C 0.18174 -3.07577 -1.11586 
C 1.37726 -2.85797 -2.08042 
N 1.89949 -1.58025 -2.08613 
C 3.06714 -1.19444 -2.8771 
C 4.33872 -1.44515 -2.07112 
O 1.76297 -3.71643 -2.87534 
C -1.14122 -2.61737 -1.75 
C -1.97915 -3.75215 -2.37423 
C -3.31486 -3.19007 -2.87086 
C -1.26671 -4.46622 -3.52077 
O 1.61293 -3.91065 1.20364 
C 0.5289 -1.63145 3.32062 
C -0.94011 -1.83718 2.97874 
C -1.85807 -1.58811 4.17513 
C -3.32665 -1.78861 3.7987 
C -4.24684 -1.53853 4.99449 
C -5.71563 -1.73825 4.61719 
C -6.63618 -1.48789 5.81281 
C -8.10498 -1.68753 5.43552 
C -9.02484 -1.43681 6.63018 
C -10.48595 -1.63487 6.25947 
O 0.89163 -1.35745 4.47395 
O 0.69821 0.263 1.04246 
O 4.82971 0.9883 0.93835 
C 4.33452 4.45781 1.02736 
C 5.71289 4.47614 1.67552 
O 1.37183 3.88198 0.81166 
C -0.80862 3.53266 -1.08483 
C -1.74855 3.19867 -2.25233 
C -1.35152 4.78213 -0.37688 
H 2.79673 2.151 -5.28683 
H 0.83121 2.48775 -6.63884 
H -0.26286 2.23169 -5.27435 
H -0.42315 0.10813 -6.41525 
H 1.30771 0.1294 -6.81036 
H 0.0528 -0.25899 -4.05035 
H 1.28359 -1.27058 -4.85482 
H 0.93308 1.79123 -2.39539 
H 0.78012 4.75242 -1.93885 
H 3.10047 2.99031 -1.67671 
H 4.96852 3.06304 -0.48154 
H 2.30767 2.64686 1.92693 
H 1.86275 0.92423 3.37673 
H 3.44817 0.17167 3.03066 
H 2.55706 -0.51004 0.74983 
H 2.47316 -2.10254 2.6755 
H 0.13907 -1.3174 0.12453 
H 0.15538 -4.13462 -0.83665 
H 1.51872 -0.90611 -1.42817 
H 3.1155 -1.81455 -3.77899 
H 4.42639 -2.50153 -1.79534 
H 5.22869 -1.16837 -2.6461 
H 4.34279 -0.86052 -1.14494 
H -0.95633 -1.84283 -2.50448 
H -1.76378 -2.14368 -0.9781 
H -2.19916 -4.49244 -1.5944 
H -3.8646 -2.71099 -2.05374 
H -3.16353 -2.44619 -3.66062 
H -3.9482 -3.98791 -3.27317 
H -0.4124 -5.04206 -3.15468 
H -1.93858 -5.17579 -4.01604 
H -0.91175 -3.7555 -4.2745 
H -1.07063 -2.86701 2.62984 
H -1.21045 -1.15101 2.17056 
H -1.70845 -0.5674 4.54872 
H -1.59072 -2.26745 4.99409 
H -3.47464 -2.81037 3.42842 
H -3.59275 -1.10692 2.98166 
H -4.09836 -0.5169 5.36492 
H -3.98128 -2.22057 5.81136 
H -5.86412 -2.75989 4.24679 
H -5.98098 -1.05628 3.80017 
H -6.48764 -0.46623 6.18317 
H -6.37085 -2.16986 6.62984 
H -8.25372 -2.70925 5.06533 
H -8.37038 -1.00598 4.61813 
H -8.88339 -0.41503 7.0012 
H -8.76613 -2.11817 7.44903 
H -11.12575 -1.45019 7.12807 
H -10.78583 -0.94534 5.46389 
H -10.66804 -2.65779 5.91476 
H 0.94286 1.20317 0.90138 
H 3.58207 4.55741 1.81669 
H 4.2386 5.34337 0.38707 
H 5.85326 5.40628 2.23536 
H 5.83556 3.64212 2.37337 
H 6.50301 4.41382 0.92049 
H -0.85062 2.69451 -0.37684 
H -1.49923 2.2323 -2.70264 
H -2.78689 3.13175 -1.90932 
H -1.69932 3.96566 -3.03283 
H -0.76544 5.0416 0.50811 
H -1.34809 5.64813 -1.04793 
H -2.38288 4.62019 -0.04455 
*