!RI BP86 def2-SVP def2/J D3BJ TIGHTSCF TightOpt Grid5 FinalGrid6 freq
%maxcore 950
%pal nprocs 16
end
* xyz 0 1 
O 0.72343 2.55007 -1.93671 
C 0.55277 2.56396 -3.15656 
C -0.58136 1.78999 -3.85719 
C -1.95077 2.13298 -3.2694 
C -2.18417 1.05006 -2.22006 
C -1.5413 -0.17668 -2.84331 
N -0.41693 0.35285 -3.60139 
C 0.63148 -0.36496 -4.14092 
O 1.53914 0.21209 -4.75229 
N 1.45669 3.12843 -4.03208 
C 2.68948 3.83132 -3.65428 
C 3.64905 2.93692 -2.82141 
N 3.49776 1.58084 -3.04577 
C 4.29638 0.5468 -2.38889 
C 4.09867 0.61518 -0.85515 
N 2.80042 0.88347 -0.45576 
C 2.46772 1.28175 0.90002 
C 2.39772 0.16383 1.96153 
C 1.09847 -0.64816 2.01488 
C 0.75596 -1.4133 0.74843 
N 1.76751 -2.21988 0.27552 
C 1.53277 -3.46869 -0.45632 
C 0.83681 -3.297 -1.83285 
N 1.14325 -2.135 -2.50495 
C 0.67112 -1.88113 -3.86613 
C 1.58116 -2.5789 -4.87605 
O 0.18687 -4.1925 -2.37825 
C 0.82188 -4.53204 0.41064 
C 1.75204 -5.33038 1.3516 
C 2.41669 -4.47286 2.42679 
C 0.95675 -6.4564 2.02161 
O -0.36682 -1.42736 0.24559 
C -0.06433 0.16704 2.56761 
C -1.30946 -0.60669 2.98658 
C -2.07768 0.10657 4.09787 
C -3.2858 -0.7129 4.55296 
C -4.05741 0.0028 5.66283 
C -5.26561 -0.81722 6.11823 
C -6.0374 -0.10147 7.22805 
C -7.24552 -0.92148 7.68363 
C -8.01669 -0.20615 8.79259 
C -9.21848 -1.01817 9.24847 
O -0.01178 1.39681 2.69111 
O 3.52108 -0.74129 1.90139 
O 4.97995 0.34371 -0.03664 
C 5.77516 0.56412 -2.78836 
C 5.97889 0.36014 -4.28341 
O 4.54382 3.37824 -2.10044 
C 2.44607 5.26662 -3.13086 
C 1.95349 5.35402 -1.68563 
C 3.69262 6.14466 -3.3048 
H -0.55695 1.96984 -4.93752 
H -2.71692 2.04871 -4.04996 
H -2.00731 3.14043 -2.84618 
H -1.66885 1.31386 -1.28889 
H -3.24309 0.90017 -1.99243 
H -1.22403 -0.91064 -2.10329 
H -2.21956 -0.66266 -3.55345 
H 1.27669 3.03401 -5.02802 
H 3.20991 3.93246 -4.61817 
H 2.81174 1.28739 -3.74445 
H 3.85763 -0.40886 -2.70334 
H 2.13939 1.14314 -1.19076 
H 1.53458 1.84832 0.84608 
H 3.25098 1.98746 1.20525 
H 2.50061 0.66569 2.93309 
H 1.26874 -1.4312 2.77014 
H 2.68983 -2.08344 0.69453 
H 2.53567 -3.83796 -0.70991 
H 1.67348 -1.4227 -2.00802 
H -0.34014 -2.28858 -3.97572 
H 1.56714 -3.6649 -4.73678 
H 1.26253 -2.36437 -5.90173 
H 2.62095 -2.24787 -4.77122 
H 0.33057 -5.26469 -0.24152 
H 0.01565 -4.07095 0.99522 
H 2.54172 -5.79655 0.74871 
H 3.14489 -3.78361 1.99226 
H 1.6765 -3.89341 2.98775 
H 2.96335 -5.09889 3.14072 
H 0.51006 -7.11852 1.27228 
H 1.60594 -7.06761 2.65766 
H 0.1502 -6.05577 2.64524 
H -1.00276 -1.59829 3.3374 
H -1.95053 -0.73233 2.10852 
H -2.41289 1.08968 3.74474 
H -1.40972 0.28808 4.94913 
H -2.9505 -1.69338 4.91246 
H -3.95079 -0.89149 3.6992 
H -4.39323 0.98314 5.30346 
H -3.39205 0.1817 6.51622 
H -4.92981 -1.79753 6.4777 
H -5.93086 -0.99621 5.26476 
H -6.37328 0.8788 6.86851 
H -5.37209 0.07763 8.08145 
H -6.9098 -1.90186 8.0431 
H -7.91087 -1.10084 6.83028 
H -8.3583 0.77289 8.43695 
H -7.35705 -0.028 9.64982 
H -9.75524 -0.4882 10.04152 
H -9.91488 -1.18668 8.42085 
H -8.90809 -1.992 9.64046 
H 4.25618 -0.24255 1.47343 
H 6.30533 -0.23454 -2.25488 
H 6.25204 1.5028 -2.4849 
H 7.04791 0.32088 -4.51557 
H 5.5252 -0.57885 -4.6164 
H 5.54091 1.17943 -4.86184 
H 1.6661 5.71739 -3.76062 
H 0.93885 4.96055 -1.58905 
H 2.60457 4.81322 -0.99294 
H 1.91312 6.39786 -1.35413 
H 4.05679 6.10954 -4.3369 
H 3.45923 7.19048 -3.07591 
H 4.50773 5.8381 -2.64323 
*