!RI BP86 def2-SVP def2/J D3BJ TIGHTSCF TightOpt Grid5 FinalGrid6 freq
%maxcore 950
%pal nprocs 16
end
* xyz 0 1 
O 4.33002 1.6881 -3.95063 
C 3.2157 2.14878 -4.23015 
C 2.76384 3.54293 -3.75533 
C 3.69836 4.62586 -4.2999 
C 4.77858 4.7465 -3.23047 
C 4.01838 4.51273 -1.93423 
N 2.90034 3.64952 -2.29896 
C 2.00503 3.0353 -1.44388 
O 1.13734 2.26854 -1.88446 
N 2.3802 1.3628 -4.96366 
C 0.96362 1.54284 -5.32427 
C 0.15562 0.33676 -4.78232 
N 0.55418 -0.07065 -3.5269 
C -0.06587 -1.18343 -2.81098 
C -1.32719 -0.7037 -2.05192 
N -1.29418 0.59022 -1.5678 
C -2.46924 1.25165 -1.02894 
C -2.44051 1.60638 0.47182 
C -2.27754 0.45244 1.47494 
C -0.85194 -0.06369 1.48073 
N -0.01476 0.61136 2.34174 
C 1.43767 0.43515 2.43816 
C 2.18819 1.25508 1.35323 
N 1.49166 2.34604 0.88114 
C 2.08884 3.39442 0.05747 
C 1.36636 4.7132 0.31499 
O 3.36812 1.0616 1.05492 
C 1.94039 -1.01692 2.4996 
C 1.25921 -1.90817 3.55798 
C 1.79456 -3.33848 3.45415 
C 1.45607 -1.38235 4.97967 
O -0.46231 -1.00487 0.79729 
C -3.35427 -0.60981 1.3148 
C -3.13923 -1.98499 1.92649 
C -2.98489 -1.9233 3.44284 
C -2.67245 -3.30353 4.02423 
C -2.46835 -3.23239 5.53893 
C -1.992 -4.5527 6.15062 
C -3.02015 -5.68045 6.04064 
C -2.53944 -6.94017 6.76466 
C -3.56256 -8.07027 6.65289 
C -3.08892 -9.32357 7.3715 
O -4.44474 -0.3482 0.78499 
O -1.45123 2.6332 0.7077 
O -2.27105 -1.46228 -1.81162 
C 0.97228 -1.83131 -1.89235 
C 0.53382 -3.1904 -1.36554 
O -0.83088 -0.14134 -5.34165 
C 0.76722 1.76114 -6.8395 
C 1.38179 0.64761 -7.69404 
C 1.32729 3.11834 -7.27625 
H 1.73367 3.76225 -4.03112 
H 3.15679 5.57703 -4.37411 
H 4.11317 4.39277 -5.28524 
H 5.53712 3.96793 -3.36976 
H 5.28666 5.71487 -3.24845 
H 4.63965 4.04348 -1.16695 
H 3.61649 5.45284 -1.54628 
H 2.78137 0.46092 -5.20409 
H 0.55148 2.40262 -4.7906 
H 1.22852 0.51559 -3.03364 
H -0.40421 -1.90709 -3.56299 
H -0.44849 1.14622 -1.71944 
H -3.35865 0.66122 -1.26833 
H -2.54854 2.18485 -1.59991 
H -3.40805 2.08749 0.67313 
H -2.4567 0.87398 2.47535 
H -0.39878 1.39808 2.85816 
H 1.70919 0.93015 3.37982 
H 0.4754 2.3477 0.99031 
H 3.13771 3.4841 0.35395 
H 1.38522 4.96495 1.38091 
H 1.81912 5.54181 -0.23545 
H 0.31676 4.65602 0.00562 
H 3.02198 -1.00372 2.69328 
H 1.83601 -1.4834 1.51219 
H 0.18377 -1.95072 3.35796 
H 1.62179 -3.74613 2.45237 
H 2.87029 -3.37679 3.65647 
H 1.29057 -3.99528 4.17129 
H 0.96555 -0.41403 5.11726 
H 1.02171 -2.0717 5.71191 
H 2.51892 -1.26468 5.21596 
H -2.27988 -2.46493 1.45109 
H -4.00873 -2.60416 1.67254 
H -3.90634 -1.5289 3.88884 
H -2.18584 -1.22711 3.71929 
H -1.76719 -3.70349 3.55169 
H -3.49417 -3.98784 3.78548 
H -3.3999 -2.91545 6.02327 
H -1.71826 -2.46424 5.76478 
H -1.76522 -4.37604 7.20941 
H -1.05277 -4.8598 5.67442 
H -3.20252 -5.9212 4.98738 
H -3.97417 -5.35174 6.47006 
H -2.36006 -6.71092 7.82217 
H -1.58312 -7.26651 6.33794 
H -3.74228 -8.30714 5.59776 
H -4.51948 -7.75008 7.08122 
H -3.83539 -10.11862 7.27879 
H -2.14901 -9.68864 6.94531 
H -2.93066 -9.12874 8.43702 
H -1.80368 3.17673 1.4441 
H 1.21477 -1.16597 -1.05672 
H 1.90913 -1.97312 -2.44697 
H 1.31534 -3.61542 -0.72753 
H -0.38201 -3.12319 -0.77255 
H 0.35531 -3.88797 -2.19015 
H -0.31117 1.77528 -7.04601 
H 0.99423 -0.33526 -7.40924 
H 1.14167 0.80192 -8.75179 
H 2.47283 0.62259 -7.60451 
H 0.87848 3.93048 -6.69477 
H 2.41362 3.16747 -7.14854 
H 1.10637 3.30483 -8.33273 
*