!RI BP86 def2-SVP def2/J D3BJ TIGHTSCF TightOpt Grid5 FinalGrid6 freq
%maxcore 950
%pal nprocs 16
end
* xyz 0 1 
O -0.17259 1.41935 -3.20081 
C 0.71894 2.15469 -3.62846 
C 1.53423 3.12753 -2.7496 
C 2.94967 2.56746 -2.54959 
C 3.29621 2.93581 -1.11558 
C 1.96198 2.8133 -0.40014 
N 0.99668 3.27088 -1.38944 
C -0.20348 3.91417 -1.15925 
O -0.87537 4.33637 -2.10951 
N 1.12335 2.11802 -4.94916 
C 0.4853 1.24091 -5.94555 
C 0.92982 -0.23586 -5.75791 
N 2.09883 -0.39618 -5.04737 
C 2.62849 -1.68529 -4.59677 
C 2.35793 -1.88015 -3.07863 
N 1.20694 -1.28149 -2.61984 
C 0.70944 -1.37647 -1.2548 
C 0.14387 -2.77008 -0.91714 
C -0.46137 -2.90959 0.48904 
C -1.47941 -1.83186 0.80618 
N -0.99139 -0.64399 1.28834 
C -1.84347 0.51604 1.55828 
C -0.95191 1.76436 1.4271 
N -1.43991 2.73472 0.58564 
C -0.73522 3.98197 0.29241 
C -1.69258 5.15798 0.46165 
O 0.12456 1.87299 2.01817 
C -2.43861 0.42483 2.97064 
C -3.4154 1.55932 3.33855 
C -4.65343 1.57599 2.4413 
C -3.84196 1.41673 4.80228 
O -2.68441 -2.00033 0.60286 
C 0.6198 -3.0381 1.54446 
C 0.50936 -4.19058 2.52567 
C -0.63561 -4.00847 3.51782 
C -0.38228 -2.86338 4.5025 
C -1.55661 -2.69436 5.46817 
C -1.30201 -1.55992 6.46164 
C -2.49332 -1.3666 7.40077 
C -2.2481 -0.21885 8.38128 
C -3.45021 -0.00807 9.30116 
C -3.21175 1.13362 10.27635 
O 1.53932 -2.21641 1.64521 
O -0.85227 -3.11606 -1.90829 
O 3.03639 -2.61289 -2.35659 
C 4.12733 -1.80159 -4.8934 
C 4.43653 -1.77972 -6.38367 
O 0.3268 -1.1873 -6.2544 
C 0.73489 1.76927 -7.37571 
C 2.17622 1.57554 -7.85523 
C -0.23724 1.15309 -8.38565 
H 1.55112 4.11682 -3.22168 
H 3.66273 2.98248 -3.2687 
H 2.96826 1.47616 -2.65705 
H 4.06744 2.29199 -0.68412 
H 3.65093 3.97286 -1.07669 
H 1.73298 1.76728 -0.17158 
H 1.9443 3.40453 0.51584 
H 1.86799 2.74033 -5.25193 
H -0.59097 1.26458 -5.73034 
H 2.53491 0.44711 -4.68599 
H 2.08537 -2.48986 -5.10697 
H 0.66901 -0.71309 -3.27045 
H -0.07272 -0.61459 -1.19233 
H 1.52793 -1.10097 -0.58458 
H 0.94581 -3.5094 -1.03362 
H -1.02586 -3.85278 0.50603 
H 0.00443 -0.55099 1.49412 
H -2.6333 0.52951 0.80094 
H -2.27798 2.53796 0.04445 
H 0.08789 4.11983 0.99551 
H -2.05114 5.2187 1.495 
H -1.19678 6.10235 0.21352 
H -2.57166 5.06056 -0.18563 
H -1.61777 0.41806 3.70043 
H -2.95018 -0.54004 3.08627 
H -2.90395 2.52414 3.23767 
H -4.39329 1.80844 1.40461 
H -5.16736 0.60894 2.45613 
H -5.36365 2.34061 2.77437 
H -2.97105 1.44679 5.46516 
H -4.51011 2.23355 5.09507 
H -4.36746 0.47109 4.97326 
H 1.46481 -4.29364 3.05289 
H 0.36946 -5.11163 1.94851 
H -0.75912 -4.94152 4.08111 
H -1.57724 -3.83427 2.9848 
H -0.22605 -1.9253 3.95828 
H 0.53516 -3.06416 5.06889 
H -1.7225 -3.6305 6.01493 
H -2.47068 -2.48595 4.89888 
H -1.11024 -0.62837 5.9163 
H -0.40226 -1.78056 7.04871 
H -2.67676 -2.2934 7.95784 
H -3.3952 -1.16035 6.81205 
H -2.04612 0.7044 7.82485 
H -1.35683 -0.43419 8.98316 
H -3.65381 -0.9261 9.86456 
H -4.34265 0.2107 8.70323 
H -4.08367 1.26699 10.92432 
H -2.34369 0.9318 10.91201 
H -3.03703 2.0741 9.74406 
H -1.06658 -4.06061 -1.76574 
H 4.51717 -2.73763 -4.47537 
H 4.67323 -0.98727 -4.40057 
H 5.50771 -1.93452 -6.54779 
H 3.89475 -2.5725 -6.90908 
H 4.16682 -0.81956 -6.83256 
H 0.53852 2.85051 -7.36769 
H 2.89545 2.00369 -7.15041 
H 2.41703 0.51642 -7.99045 
H 2.32656 2.07142 -8.82055 
H -1.27469 1.29063 -8.06359 
H -0.12802 1.63277 -9.3645 
H -0.05977 0.08191 -8.52164 
*