!RI BP86 def2-SVP def2/J D3BJ TIGHTSCF TightOpt Grid5 FinalGrid6 freq
%maxcore 950
%pal nprocs 16
end
* xyz 0 1 
O 0.20053 3.13897 -4.55126 
C 1.19082 2.71619 -3.95035 
C 1.3111 2.76968 -2.40684 
C 0.9104 4.14166 -1.8629 
C 2.24871 4.8492 -1.71761 
C 3.17182 3.74193 -1.23197 
N 2.64024 2.51879 -1.81847 
C 3.12721 1.23444 -1.68492 
O 2.56543 0.31553 -2.3041 
N 2.17525 2.00523 -4.5945 
C 2.05863 1.5464 -5.98385 
C 1.23255 0.22952 -6.04696 
N 1.14214 -0.45899 -4.85828 
C 0.43671 -1.73048 -4.6847 
C -0.31104 -1.73869 -3.33012 
N -0.8201 -0.50798 -2.97044 
C -1.49591 -0.2407 -1.70683 
C -0.52919 -0.39568 -0.51448 
C -0.81836 0.58902 0.62265 
C 0.39937 0.76942 1.51144 
N 1.06508 -0.37617 1.87599 
C 2.41538 -0.3662 2.44347 
C 3.34094 -0.45737 1.20826 
N 3.64112 0.76421 0.64062 
C 4.25574 0.89871 -0.67857 
C 5.48067 1.79276 -0.64805 
O 3.67481 -1.52617 0.69409 
C 2.65272 -1.55558 3.38402 
C 2.26532 -1.29086 4.85333 
C 0.78501 -0.9645 5.03497 
C 2.63385 -2.50508 5.71064 
O 0.78501 1.88539 1.86787 
C -2.11449 0.27005 1.33349 
C -2.05686 -0.44936 2.66995 
C -3.44092 -0.81439 3.20412 
C -3.33984 -1.53991 4.54668 
C -4.72248 -1.90726 5.08701 
C -4.61944 -2.63274 6.42972 
C -6.00265 -3.0014 6.97098 
C -5.89643 -3.72401 8.31577 
C -7.24516 -4.2088 8.85175 
C -8.1992 -3.079 9.20724 
O -3.19678 0.56566 0.80571 
O -0.54045 -1.7545 -0.03057 
O -0.54062 -2.7498 -2.6652 
C 1.38001 -2.92708 -4.84805 
C 2.55041 -2.93468 -3.87039 
O 0.76073 -0.21462 -7.09469 
C 3.45638 1.41159 -6.6281 
C 4.27018 0.23031 -6.08959 
C 3.36947 1.32976 -8.15473 
H 0.62125 2.00416 -2.03473 
H 0.44941 4.0282 -0.87362 
H 0.21628 4.69785 -2.49891 
H 2.58307 5.21687 -2.69532 
H 2.21219 5.6971 -1.0282 
H 4.19778 3.91279 -1.5639 
H 3.14066 3.64762 -0.14212 
H 2.9302 1.63266 -4.02792 
H 1.47495 2.30192 -6.52449 
H 1.6167 -0.07134 -4.03997 
H -0.33907 -1.7939 -5.45815 
H -0.65278 0.26601 -3.61093 
H -2.34002 -0.93355 -1.62511 
H -1.87333 0.78322 -1.78831 
H 0.49292 -0.21722 -0.86593 
H -0.96314 1.58482 0.17685 
H 0.72997 -1.25898 1.48319 
H 2.60465 0.58282 2.9576 
H 3.22584 1.5945 1.05884 
H 4.61433 -0.09037 -0.9939 
H 6.31718 1.26348 -0.17685 
H 5.7905 2.07848 -1.65799 
H 5.32521 2.69663 -0.05238 
H 3.72154 -1.80914 3.36873 
H 2.12317 -2.44404 3.01462 
H 2.84948 -0.43626 5.2181 
H 0.53489 -0.00693 4.5703 
H 0.14971 -1.74192 4.59834 
H 0.53128 -0.87975 6.09727 
H 3.70267 -2.72969 5.62984 
H 2.41325 -2.31778 6.76694 
H 2.07527 -3.39473 5.40018 
H -1.55687 0.21049 3.38564 
H -1.4679 -1.36334 2.54676 
H -3.96135 -1.45059 2.47744 
H -4.04485 0.0942 3.31955 
H -2.81994 -0.90106 5.27106 
H -2.73816 -2.44935 4.42823 
H -5.24205 -2.54651 4.36289 
H -5.32399 -0.99785 5.20584 
H -4.10029 -1.99335 7.15408 
H -4.01709 -3.54155 6.31031 
H -6.52014 -3.64368 6.24825 
H -6.59903 -2.08878 7.08114 
H -5.42293 -3.06508 9.05379 
H -5.23972 -4.59565 8.20348 
H -7.06527 -4.80832 9.75215 
H -7.7213 -4.87174 8.12 
H -9.10308 -3.48398 9.67365 
H -7.73727 -2.38174 9.91327 
H -8.50791 -2.51981 8.31927 
H -0.48646 -2.32046 -0.83746 
H 1.78401 -2.93173 -5.86797 
H 0.81533 -3.8592 -4.72619 
H 3.16259 -3.82835 -4.02919 
H 3.19543 -2.06241 -4.01208 
H 2.20853 -2.94411 -2.83124 
H 4.01845 2.32592 -6.39189 
H 4.37495 0.27665 -5.00149 
H 3.81176 -0.72953 -6.34883 
H 5.27969 0.23743 -6.51532 
H 2.79742 2.17111 -8.55948 
H 4.37057 1.36647 -8.59818 
H 2.89542 0.40125 -8.48718 
*