!RI BP86 def2-SVP def2/J D3BJ TIGHTSCF TightOpt Grid5 FinalGrid6 freq
%maxcore 950
%pal nprocs 16
end
* xyz 0 1 
O 0.54319 -0.0936 -4.89249 
C 1.54102 -0.58737 -4.35968 
C 1.57449 -2.03799 -3.79812 
C 0.14694 -2.55604 -3.57368 
C 0.29179 -3.55637 -2.43983 
C 1.3602 -2.92849 -1.56284 
N 2.25699 -2.26637 -2.50487 
C 3.62932 -2.17338 -2.35172 
O 4.33991 -1.85779 -3.31439 
N 2.75714 0.05235 -4.39992 
C 3.08377 1.2607 -5.16831 
C 2.40641 2.52542 -4.58988 
N 1.04215 2.5886 -4.73629 
C 0.25565 3.76025 -4.35077 
C -0.03799 3.76918 -2.83519 
N -0.06194 2.52799 -2.24561 
C -0.37055 2.3067 -0.84331 
C 0.16449 0.9415 -0.38571 
C -0.03233 0.71327 1.11949 
C 0.84401 -0.43922 1.5706 
N 2.15501 -0.0923 1.81944 
C 3.14596 -1.00895 2.40182 
C 3.57739 -2.11675 1.40598 
N 3.64637 -1.70336 0.09161 
C 4.23753 -2.5196 -0.96904 
C 5.75405 -2.33207 -0.97923 
O 3.99055 -3.22415 1.75351 
C 2.68931 -1.56952 3.7607 
C 3.8392 -1.96354 4.71279 
C 4.60137 -0.74315 5.23494 
C 3.279 -2.75728 5.89698 
O 0.43053 -1.58937 1.7127 
C -1.4866 0.50659 1.51636 
C -1.78481 0.52157 3.01032 
C -3.27297 0.35507 3.31084 
C -3.54241 0.37954 4.81583 
C -5.03261 0.21225 5.11705 
C -5.30195 0.23649 6.62252 
C -6.79221 0.06935 6.92387 
C -7.06158 0.09338 8.42933 
C -8.55079 -0.07348 8.73037 
C -8.82281 -0.05027 10.22601 
O -2.38053 0.35659 0.67387 
O -0.45105 -0.08853 -1.1838 
O -0.35117 4.79198 -2.22297 
C -1.06927 3.80576 -5.11916 
C -0.86834 4.01833 -6.61346 
O 3.04992 3.43127 -4.05547 
C 2.85761 1.09916 -6.69366 
C 3.60655 -0.12173 -7.2436 
C 3.3143 2.34693 -7.46057 
H 2.08856 -2.65817 -4.54406 
H -0.27164 -3.0102 -4.47739 
H -0.53094 -1.75165 -3.26645 
H -0.64438 -3.73233 -1.90307 
H 0.64651 -4.51521 -2.83681 
H 0.93925 -2.16436 -0.90815 
H 1.86627 -3.68078 -0.95488 
H 3.5539 -0.46988 -4.03334 
H 4.1602 1.40582 -5.0006 
H 0.56047 1.74212 -5.04865 
H 0.85256 4.65593 -4.56241 
H 0.09038 1.71384 -2.8401 
H -1.46062 2.36216 -0.7601 
H 0.06513 3.12028 -0.25364 
H 1.23402 0.89656 -0.627 
H 0.30528 1.61471 1.64925 
H 2.44068 0.87544 1.69615 
H 4.03409 -0.38208 2.53685 
H 3.29358 -0.777 -0.13664 
H 4.03177 -3.57605 -0.76356 
H 6.19314 -2.61007 -0.0152 
H 6.22109 -2.95007 -1.75347 
H 6.02196 -1.28768 -1.17625 
H 2.05505 -2.44887 3.58866 
H 2.05631 -0.83072 4.27087 
H 4.54899 -2.61079 4.1857 
H 5.11014 -0.20901 4.42776 
H 3.92851 -0.03973 5.7371 
H 5.36917 -1.04595 5.95536 
H 2.76977 -3.6634 5.55196 
H 4.08242 -3.06594 6.57429 
H 2.56103 -2.16174 6.47122 
H -1.43062 1.47694 3.41325 
H -1.22095 -0.28739 3.48594 
H -3.63124 -0.59132 2.88691 
H -3.84057 1.15594 2.82077 
H -3.18656 1.32755 5.23729 
H -2.97669 -0.42378 5.30332 
H -5.38843 -0.73572 4.69545 
H -5.59836 1.01559 4.62963 
H -4.94598 1.18439 7.04415 
H -4.73627 -0.56695 7.10984 
H -7.14822 -0.87849 6.50211 
H -7.35786 0.87287 6.43663 
H -6.70541 1.04109 8.85132 
H -6.49594 -0.71008 8.91676 
H -8.91107 -1.02142 8.31408 
H -9.12046 0.72983 8.24884 
H -9.89348 -0.17093 10.41844 
H -8.29274 -0.86237 10.7338 
H -8.50298 0.89864 10.66827 
H -1.40737 -0.07009 -0.94792 
H -1.69403 4.61977 -4.73127 
H -1.6326 2.87742 -4.9608 
H -1.83757 4.08695 -7.11753 
H -0.31942 4.94546 -6.80672 
H -0.31416 3.18931 -7.06455 
H 1.79082 0.95658 -6.90311 
H 3.2399 -1.05138 -6.79745 
H 3.46827 -0.20612 -8.32701 
H 4.68139 -0.04948 -7.04538 
H 2.73038 3.22787 -7.17628 
H 4.37151 2.563 -7.27254 
H 3.1851 2.2081 -8.5395 
*