!RI BP86 def2-SVP def2/J D3BJ TIGHTSCF TightOpt Grid5 FinalGrid6 freq
%maxcore 950
%pal nprocs 16
end
* xyz 0 1 
O 1.7758 2.06946 -0.41539 
C 1.51145 2.97678 -1.2073 
C 1.35554 2.76739 -2.73221 
C -0.0785 3.02826 -3.19552 
C -0.75626 1.67735 -2.99424 
C 0.32807 0.67921 -3.37079 
N 1.58447 1.36389 -3.09435 
C 2.85537 0.8419 -3.19264 
O 3.84589 1.54432 -2.94852 
N 1.29466 4.26783 -0.77298 
C 1.47829 4.6673 0.63008 
C 0.34921 4.1564 1.56668 
N -0.74908 3.63888 0.91969 
C -1.87272 2.99296 1.60633 
C -1.57478 1.4915 1.86873 
N -0.47756 0.98282 1.2137 
C -0.04981 -0.40321 1.29902 
C 0.6866 -0.70917 2.6163 
C 1.10811 -2.17894 2.78474 
C 1.74921 -2.77574 1.5421 
N 2.83394 -2.05419 1.08997 
C 3.62437 -2.31951 -0.11233 
C 2.82832 -1.88022 -1.36497 
N 3.59518 -1.29744 -2.35064 
C 3.01127 -0.65837 -3.52965 
C 3.92924 -0.82312 -4.7335 
O 1.61392 -2.04403 -1.49339 
C 4.16035 -3.74973 -0.28212 
C 5.35823 -4.10298 0.62493 
C 5.01238 -4.10642 2.11353 
C 5.91303 -5.47523 0.22849 
O 1.37919 -3.82223 1.01688 
C -0.02529 -2.96926 3.41029 
C -1.04666 -3.66956 2.52711 
C -2.40703 -3.78198 3.22059 
C -3.47969 -4.41797 2.33038 
C -4.45703 -3.41781 1.70369 
C -3.80682 -2.44303 0.72284 
C -4.85504 -1.56205 0.0402 
C -4.21739 -0.61954 -0.98236 
C -5.275 0.25505 -1.65612 
C -4.66761 1.15622 -2.71836 
O -0.12535 -3.01585 4.64682 
O 1.86637 0.12885 2.6952 
O -2.29804 0.77494 2.56409 
C -3.13621 3.16151 0.75425 
C -4.42377 2.82873 1.49378 
O 0.40822 4.24253 2.79409 
C 1.65699 6.19408 0.79791 
C 2.92965 6.68416 0.10111 
C 0.44811 7.00307 0.31568 
H 2.07785 3.41581 -3.24053 
H -0.08227 3.28002 -4.26325 
H -0.59371 3.82746 -2.65585 
H -1.03438 1.55225 -1.9408 
H -1.65836 1.56049 -3.60029 
H 0.24796 -0.24359 -2.79253 
H 0.30236 0.4393 -4.43904 
H 1.08361 4.984 -1.46196 
H 2.38931 4.16306 0.98041 
H -0.72388 3.61661 -0.09569 
H -1.99516 3.47474 2.58327 
H 0.13399 1.62917 0.71517 
H 0.60118 -0.55318 0.43517 
H -0.93571 -1.02819 1.18667 
H 0.047 -0.40589 3.45492 
H 1.91428 -2.21422 3.53521 
H 3.00822 -1.15903 1.55103 
H 4.48298 -1.64013 -0.02967 
H 4.5739 -1.10252 -2.15583 
H 2.05099 -1.12659 -3.7521 
H 4.06557 -1.88281 -4.97435 
H 3.5103 -0.32087 -5.61184 
H 4.92157 -0.39667 -4.54783 
H 4.49114 -3.86641 -1.32363 
H 3.36519 -4.49089 -0.15033 
H 6.15272 -3.36417 0.45972 
H 4.79303 -3.09786 2.47435 
H 4.14797 -4.74596 2.32053 
H 5.8548 -4.47789 2.70745 
H 6.21429 -5.48506 -0.8244 
H 6.79478 -5.72732 0.82726 
H 5.16628 -6.263 0.37573 
H -0.66443 -4.67141 2.30324 
H -1.15163 -3.1283 1.58636 
H -2.73399 -2.8019 3.58866 
H -2.28388 -4.41415 4.1099 
H -4.07469 -5.09844 2.95327 
H -3.02344 -5.03804 1.54962 
H -4.96318 -2.85598 2.49852 
H -5.23524 -3.98786 1.18077 
H -3.24316 -3.00113 -0.034 
H -3.10013 -1.80035 1.25611 
H -5.39013 -0.97626 0.79766 
H -5.59652 -2.19565 -0.46168 
H -3.68712 -1.20718 -1.74162 
H -3.47256 0.01501 -0.48764 
H -5.77977 0.87293 -0.90443 
H -6.03972 -0.3779 -2.12136 
H -5.44567 1.76667 -3.18723 
H -3.92421 1.83099 -2.28458 
H -4.18125 0.5662 -3.50165 
H 2.08938 0.1867 3.64791 
H -3.06744 2.54078 -0.14644 
H -3.20409 4.20189 0.41082 
H -5.28792 3.07732 0.869 
H -4.48964 1.76393 1.73279 
H -4.50321 3.40052 2.42355 
H 1.77544 6.40383 1.86964 
H 3.80577 6.13351 0.4594 
H 2.87066 6.56133 -0.9853 
H 3.09758 7.74661 0.30804 
H -0.46722 6.69716 0.83176 
H 0.59711 8.06912 0.52013 
H 0.28485 6.89486 -0.76101 
*