!RI BP86 def2-SVP def2/J D3BJ TIGHTSCF TightOpt Grid5 FinalGrid6 freq
%maxcore 950
%pal nprocs 16
end
* xyz 0 1 
O 1.05357 3.09763 -4.7647 
C 0.81059 3.14906 -3.55759 
C 1.37625 4.25146 -2.62146 
C 2.71164 4.79288 -3.13644 
C 3.72795 3.86607 -2.47733 
C 3.14506 3.64933 -1.08947 
N 1.70203 3.77677 -1.26423 
C 0.75292 3.6484 -0.26842 
O -0.44715 3.78209 -0.53651 
N -0.11063 2.30475 -2.97541 
C -0.87182 1.28162 -3.70613 
C 0.09253 0.18412 -4.24844 
N 1.17037 -0.06459 -3.42294 
C 2.15801 -1.12619 -3.64284 
C 2.03631 -2.20088 -2.53433 
N 0.75154 -2.39806 -2.0742 
C 0.40057 -3.37642 -1.05677 
C -0.95352 -3.06475 -0.387 
C -1.0407 -1.66906 0.24598 
C 0.06276 -1.41938 1.25673 
N 1.21928 -0.91436 0.70982 
C 2.38132 -0.4865 1.50475 
C 2.23616 1.00895 1.87931 
N 1.41946 1.73063 1.04001 
C 1.23505 3.176 1.12023 
C 0.21564 3.5257 2.19902 
O 2.89065 1.54585 2.77378 
C 3.65384 -0.72375 0.67755 
C 4.98983 -0.45021 1.39432 
C 6.1499 -0.69795 0.42489 
C 5.16985 -1.30985 2.64529 
O -0.05536 -1.62764 2.46285 
C -2.40284 -1.40095 0.86878 
C -3.03325 -2.48021 1.73904 
C -4.03786 -1.93132 2.75323 
C -3.35562 -1.13388 3.8702 
C -4.33896 -0.5683 4.896 
C -5.13863 -1.58972 5.71321 
C -4.29429 -2.47083 6.64123 
C -3.94747 -3.83379 6.03643 
C -3.14641 -4.68801 7.0201 
C -2.79848 -6.0433 6.42517 
O -2.97283 -0.31688 0.67525 
O -1.98605 -3.166 -1.39491 
O 2.9727 -2.90716 -2.15941 
C 3.57764 -0.55125 -3.69654 
C 3.80298 0.33662 -4.9126 
O -0.13852 -0.52083 -5.23001 
C -1.83437 1.85477 -4.77606 
C -2.9197 0.8352 -5.15414 
C -2.53774 3.13572 -4.30369 
H 0.61799 5.04101 -2.56385 
H 2.86292 5.81602 -2.77009 
H 2.80847 4.80634 -4.22537 
H 3.77341 2.91439 -3.01924 
H 4.73543 4.28988 -2.44733 
H 3.40342 2.67081 -0.67644 
H 3.47446 4.43061 -0.39615 
H -0.42972 2.54476 -2.03758 
H -1.46807 0.78343 -2.92916 
H 1.26827 0.52698 -2.60182 
H 1.93265 -1.63711 -4.58655 
H -0.00218 -1.92266 -2.56767 
H 1.20837 -3.44432 -0.32113 
H 0.34739 -4.3415 -1.57378 
H -1.15198 -3.84517 0.35587 
H -0.95226 -0.9192 -0.55382 
H 1.2709 -0.80403 -0.2997 
H 2.38732 -1.06599 2.43284 
H 0.87295 1.2105 0.35947 
H 2.18971 3.64726 1.37259 
H 0.57038 3.21847 3.18847 
H 0.02951 4.60459 2.22269 
H -0.74276 3.02355 2.02373 
H 3.61035 -0.10059 -0.22643 
H 3.65166 -1.76467 0.32667 
H 5.03438 0.60413 1.68971 
H 6.05743 -0.06293 -0.46275 
H 7.10973 -0.46839 0.8997 
H 6.17637 -1.74188 0.0941 
H 4.43324 -1.05559 3.41314 
H 5.06849 -2.37531 2.41295 
H 6.16094 -1.15315 3.08477 
H -2.252 -3.03326 2.26937 
H -3.54501 -3.17824 1.06727 
H -4.57986 -2.78071 3.18245 
H -4.78184 -1.30203 2.25049 
H -2.81275 -0.28882 3.4293 
H -2.59946 -1.74718 4.3713 
H -5.04899 0.08769 4.37639 
H -3.78253 0.07627 5.58831 
H -5.77472 -2.19983 5.06282 
H -5.82659 -1.01241 6.34534 
H -4.87275 -2.64788 7.55732 
H -3.38247 -1.94434 6.94682 
H -3.3682 -3.7106 5.11714 
H -4.87136 -4.35929 5.76548 
H -3.72281 -4.83678 7.94057 
H -2.22133 -4.16861 7.29613 
H -2.2265 -6.6375 7.14464 
H -3.70351 -6.60204 6.16621 
H -2.19309 -5.93066 5.52006 
H -1.90886 -4.06469 -1.7781 
H 4.31119 -1.36585 -3.72698 
H 3.78615 0.02495 -2.78656 
H 4.83648 0.69697 -4.92896 
H 3.62195 -0.21624 -5.83982 
H 3.14499 1.20982 -4.89876 
H -1.26749 2.0947 -5.68428 
H -2.49813 -0.07608 -5.58448 
H -3.51597 0.5507 -4.28016 
H -3.60137 1.2558 -5.90182 
H -1.8288 3.95574 -4.15612 
H -3.26645 3.47648 -5.04752 
H -3.07061 2.96965 -3.36108 
*