!RI BP86 def2-SVP def2/J D3BJ TIGHTSCF TightOpt Grid5 FinalGrid6 freq
%maxcore 950
%pal nprocs 16
end
* xyz 0 1 
O 3.27433 2.9897 -5.41964 
C 3.10859 2.99635 -4.19912 
C 2.48505 4.19571 -3.44907 
C 3.4491 5.38211 -3.43773 
C 4.20714 5.20794 -2.12599 
C 3.14272 4.68454 -1.17456 
N 2.21974 3.94073 -2.0232 
C 1.1341 3.1964 -1.61148 
O 0.46581 2.5603 -2.43764 
N 3.5134 1.9562 -3.39499 
C 4.06715 0.69569 -3.90328 
C 2.91497 -0.31137 -4.19781 
N 1.6606 0.08836 -3.79245 
C 0.43975 -0.71466 -3.87843 
C 0.44706 -1.79606 -2.76647 
N -0.72675 -2.5093 -2.64015 
C -0.94565 -3.58465 -1.6843 
C -0.56339 -3.29271 -0.21662 
C -1.1684 -1.97424 0.29515 
C -0.28713 -1.29161 1.32495 
N 0.97479 -0.96597 0.86649 
C 1.93708 -0.20019 1.67058 
C 1.65387 1.31192 1.51122 
N 1.18952 1.68402 0.27003 
C 0.87411 3.06076 -0.09881 
C -0.588 3.36674 0.20434 
O 1.94772 2.14102 2.37403 
C 3.36224 -0.54351 1.21465 
C 4.49659 0.08964 2.04438 
C 5.85097 -0.30302 1.44715 
C 4.44608 -0.32029 3.51641 
O -0.66638 -0.96677 2.4496 
C -2.62036 -2.12183 0.70132 
C -2.97055 -2.84474 1.99123 
C -3.9437 -2.02142 2.83108 
C -4.25645 -2.71367 4.15786 
C -5.2331 -1.88978 4.99852 
C -5.54505 -2.58181 6.32643 
C -6.52142 -1.75769 7.16736 
C -6.83336 -2.44961 8.49533 
C -7.8088 -1.62592 9.33571 
C -8.12141 -2.31032 10.65683 
O -3.521 -1.70181 -0.04229 
O -0.95062 -4.40795 0.60616 
O 1.38991 -1.95698 -1.98605 
C 0.15057 -1.2873 -5.27403 
C 0.09162 -0.21343 -6.35271 
O 3.11011 -1.40285 -4.73479 
C 5.10072 0.12007 -2.90248 
C 5.82916 -1.11259 -3.45066 
C 6.15497 1.17086 -2.52117 
H 1.54398 4.43853 -3.95586 
H 2.88142 6.32024 -3.40631 
H 4.1207 5.41774 -4.30062 
H 5.00091 4.46237 -2.25166 
H 4.66596 6.13541 -1.77253 
H 3.55952 4.03811 -0.39691 
H 2.58641 5.50356 -0.70614 
H 3.329 2.03502 -2.39831 
H 4.55067 0.90295 -4.866 
H 1.57667 1.00112 -3.34854 
H -0.37335 -0.02456 -3.61618 
H -1.48472 -2.30801 -3.28726 
H -0.38176 -4.45549 -2.03932 
H -2.00489 -3.86044 -1.74631 
H 0.52766 -3.26626 -0.14631 
H -1.18101 -1.23779 -0.52105 
H 1.2403 -1.21594 -0.08855 
H 1.77611 -0.46399 2.72051 
H 0.97059 0.94715 -0.39609 
H 1.49899 3.73859 0.48562 
H -0.79127 3.27603 1.27673 
H -0.84448 4.38403 -0.10957 
H -1.26059 2.67642 -0.3176 
H 3.48355 -0.23693 0.16709 
H 3.48146 -1.63578 1.22375 
H 4.41921 1.18173 1.98741 
H 5.92177 0.01588 0.40267 
H 6.67119 0.17192 1.99583 
H 6.00259 -1.38726 1.48206 
H 3.55083 0.07021 4.00914 
H 4.44937 -1.41004 3.62541 
H 5.31095 0.07577 4.0597 
H -2.06512 -3.05398 2.56802 
H -3.41314 -3.81046 1.72191 
H -4.87353 -1.86125 2.27137 
H -3.51832 -1.02829 3.02144 
H -3.32729 -2.86698 4.72018 
H -4.68408 -3.70469 3.96295 
H -6.16264 -1.73653 4.43688 
H -4.80523 -0.89865 5.19243 
H -4.61545 -2.73521 6.88797 
H -5.97305 -3.57287 6.1325 
H -7.45103 -1.60429 6.60583 
H -6.09338 -0.76663 7.3612 
H -5.90378 -2.60338 9.05685 
H -7.26145 -3.44072 8.30166 
H -8.74158 -1.47283 8.78055 
H -7.38383 -0.6354 9.53567 
H -8.82043 -1.70423 11.24159 
H -8.57807 -3.29145 10.49199 
H -7.21278 -2.4494 11.25128 
H -0.48173 -5.1899 0.24601 
H -0.81302 -1.80985 -5.26835 
H 0.89234 -2.04377 -5.55126 
H -0.18463 -0.66069 -7.31296 
H -0.6557 0.54769 -6.10678 
H 1.05875 0.28139 -6.48241 
H 4.57935 -0.18026 -1.98501 
H 5.15738 -1.96983 -3.54347 
H 6.27015 -0.90965 -4.43229 
H 6.63571 -1.42154 -2.77631 
H 5.70726 2.00908 -1.97843 
H 6.91921 0.7394 -1.86569 
H 6.65768 1.56667 -3.41022 
*