!RI BP86 def2-SVP def2/J D3BJ TIGHTSCF TightOpt Grid5 FinalGrid6 freq
%maxcore 950
%pal nprocs 16
end
* xyz 0 1 
O 1.06802 4.58788 -3.96983 
C 1.91625 3.75769 -3.63208 
C 3.05622 4.11695 -2.65548 
C 4.11346 4.94042 -3.39772 
C 5.08969 3.88366 -3.90274 
C 5.12527 2.87249 -2.76675 
N 3.82786 2.99486 -2.1056 
C 3.4106 2.32367 -0.97262 
O 2.25475 2.45683 -0.54451 
N 1.99333 2.51931 -4.22998 
C 1.18632 2.18778 -5.41204 
C -0.2703 1.92516 -4.96672 
N -0.40881 0.97732 -3.98069 
C -1.70582 0.5723 -3.42703 
C -1.47005 -0.08424 -2.04577 
N -0.38902 0.43083 -1.36072 
C 0.06674 -0.09128 -0.08653 
C -0.49714 0.71313 1.0969 
C -0.13505 0.15973 2.48314 
C 1.36122 0.01325 2.6983 
N 1.96666 -1.08847 2.14864 
C 3.40651 -1.36547 2.21408 
C 4.25964 -0.65831 1.12083 
N 3.74216 0.52578 0.65634 
C 4.45107 1.45689 -0.21873 
C 5.34722 2.346 0.64253 
O 5.38465 -1.03862 0.79014 
C 3.70252 -2.87491 2.30736 
C 3.03011 -3.80099 1.26797 
C 3.3074 -3.409 -0.18168 
C 3.48331 -5.24605 1.5048 
O 2.02258 0.88692 3.26527 
C -0.93298 -1.10337 2.75302 
C -2.24618 -0.92248 3.50016 
C -3.01757 -2.23143 3.65303 
C -4.33418 -2.01731 4.40045 
C -5.10666 -3.32858 4.55322 
C -6.42391 -3.11444 5.30058 
C -7.19631 -4.4258 5.45352 
C -8.51375 -4.21169 6.20056 
C -9.28537 -5.52218 6.35364 
C -10.59582 -5.31363 7.09574 
O -0.54937 -2.21332 2.36491 
O -0.11053 2.10253 1.00996 
O -2.22352 -0.91296 -1.53498 
C -2.43734 -0.37726 -4.38639 
C -3.94387 -0.39245 -4.16138 
O -1.24085 2.4496 -5.51567 
C 1.76956 0.97943 -6.18278 
C 3.20841 1.24732 -6.64036 
C 0.91703 0.63245 -7.4094 
H 2.60678 4.68774 -1.83444 
H 4.62914 5.60394 -2.69241 
H 3.71173 5.55228 -4.21102 
H 4.70188 3.42013 -4.81592 
H 6.07838 4.29291 -4.12887 
H 5.27256 1.84697 -3.11741 
H 5.91832 3.12148 -2.059 
H 2.68223 1.8596 -3.87895 
H 1.17188 3.07384 -6.06001 
H 0.43093 0.52072 -3.63287 
H -2.28989 1.48671 -3.26737 
H 0.08812 1.24269 -1.74894 
H 1.15422 -0.02517 -0.13325 
H -0.21452 -1.14626 -0.01948 
H -1.59043 0.72324 1.00333 
H -0.44864 0.89323 3.24006 
H 1.36224 -1.79227 1.72758 
H 3.76454 -0.91544 3.1509 
H 2.8642 0.8526 1.04699 
H 5.04726 0.87844 -0.93072 
H 6.09636 1.74866 1.17333 
H 5.87513 3.10266 0.05868 
H 4.75692 2.87826 1.39817 
H 3.37616 -3.21207 3.30133 
H 4.78849 -3.03335 2.2806 
H 1.94478 -3.78015 1.42213 
H 2.86881 -2.43649 -0.42316 
H 4.38229 -3.36893 -0.38538 
H 2.86482 -4.13719 -0.87039 
H 3.25242 -5.56409 2.52703 
H 2.9724 -5.93163 0.82029 
H 4.56224 -5.35481 1.35017 
H -2.8542 -0.19682 2.94916 
H -2.01614 -0.50803 4.48794 
H -2.40169 -2.96234 4.19171 
H -3.22008 -2.6579 2.66261 
H -4.94998 -1.28925 3.8585 
H -4.12938 -1.59391 5.39129 
H -4.49092 -4.05665 5.09522 
H -5.31117 -3.75202 3.56232 
H -7.03968 -2.38648 4.75846 
H -6.21941 -2.69088 6.29142 
H -6.5806 -5.15366 5.99584 
H -7.40058 -4.84951 4.46269 
H -9.12963 -3.48391 5.65826 
H -8.30974 -3.78759 7.19131 
H -8.67564 -6.25199 6.8989 
H -9.49552 -5.94832 5.36574 
H -11.13111 -6.26323 7.19389 
H -10.41877 -4.91797 8.10094 
H -11.2432 -4.61259 6.55931 
H 0.72038 2.15067 0.48181 
H -2.04436 -1.39663 -4.28718 
H -2.26092 -0.07924 -5.42689 
H -4.42383 -1.06265 -4.88179 
H -4.2028 -0.74058 -3.15794 
H -4.36829 0.60744 -4.2978 
H 1.7886 0.0992 -5.52714 
H 3.88253 1.36161 -5.78653 
H 3.58844 0.41269 -7.23953 
H 3.26887 2.15574 -7.2492 
H -0.09137 0.32014 -7.12092 
H 0.82901 1.48952 -8.08574 
H 1.36244 -0.19619 -7.97066 
*