!RI BP86 def2-SVP def2/J D3BJ TIGHTSCF TightOpt Grid5 FinalGrid6 freq
%maxcore 950
%pal nprocs 16
end
* xyz 0 1 
O 2.55746 2.04445 -4.84778 
C 2.23517 2.43133 -3.72185 
C 1.31348 3.6511 -3.50933 
C 2.02187 4.89504 -4.06509 
C 1.63553 6.01084 -3.10596 
C 1.55676 5.29992 -1.76752 
N 1.02334 3.98764 -2.10668 
C 0.19276 3.20801 -1.3282 
O -0.31777 2.17479 -1.78514 
N 2.70497 1.82262 -2.58101 
C 3.69366 0.74578 -2.61661 
C 3.02453 -0.52386 -3.18746 
N 1.82271 -0.88689 -2.61541 
C 1.13053 -2.114 -3.01295 
C -0.38864 -2.09412 -2.71172 
N -0.96226 -0.85716 -2.49957 
C -2.37467 -0.69664 -2.20079 
C -2.70395 -0.34843 -0.72967 
C -2.10581 -1.22814 0.38567 
C -0.68289 -0.8066 0.70893 
N -0.56816 -0.06708 1.87019 
C 0.66873 0.57445 2.32686 
C 0.99388 1.8003 1.4371 
N -0.12398 2.45834 0.96458 
C -0.04728 3.65204 0.13108 
C -1.33439 4.45829 0.22497 
O 2.12914 2.24758 1.27051 
C 1.87266 -0.36651 2.48126 
C 1.6216 -1.59968 3.37216 
C 1.28732 -1.21641 4.81418 
C 2.85051 -2.51203 3.35005 
O 0.29259 -1.06445 0.00642 
C -2.33222 -2.70668 0.13616 
C -1.31682 -3.72821 0.63114 
C -1.94527 -4.80028 1.52558 
C -1.74204 -4.56003 3.0261 
C -2.38124 -3.27016 3.53682 
C -2.23401 -3.1379 5.05339 
C -2.80037 -1.80642 5.54897 
C -2.61445 -1.65084 7.05876 
C -3.17222 -0.3162 7.55219 
C -2.98726 -0.1559 9.05266 
O -3.38033 -3.09632 -0.40339 
O -2.4302 1.04453 -0.46639 
O -1.07692 -3.11781 -2.74549 
C 1.79209 -3.33341 -2.34028 
C 1.65685 -4.61125 -3.15892 
O 3.58525 -1.23296 -4.02814 
C 4.29679 0.49421 -1.2155 
C 5.27802 -0.68321 -1.21733 
C 5.02515 1.74077 -0.69509 
H 0.36303 3.459 -4.02015 
H 1.72002 5.1124 -5.09455 
H 3.11219 4.77033 -4.06143 
H 2.3502 6.83826 -3.10404 
H 0.6503 6.40713 -3.38013 
H 2.55159 5.15051 -1.334 
H 0.92952 5.83965 -1.05596 
H 2.40703 2.19043 -1.68236 
H 4.47892 1.04451 -3.32295 
H 1.48064 -0.37161 -1.80482 
H 1.22573 -2.19106 -4.10357 
H -0.37442 -0.02586 -2.55129 
H -2.91512 -1.59982 -2.50035 
H -2.72139 0.11736 -2.84794 
H -3.79637 -0.42536 -0.6488 
H -2.69985 -1.02165 1.28803 
H -1.40454 0.12511 2.41485 
H 0.4251 1.00003 3.30842 
H -1.01537 1.96655 1.01915 
H 0.79876 4.24539 0.48989 
H -1.52416 4.76709 1.2584 
H -1.28915 5.35636 -0.39884 
H -2.19767 3.87209 -0.10926 
H 2.71551 0.2051 2.89358 
H 2.21035 -0.70075 1.49293 
H 0.78081 -2.17412 2.96786 
H 0.33961 -0.67311 4.87258 
H 1.18746 -2.10952 5.44034 
H 2.0701 -0.58605 5.24923 
H 3.07928 -2.83124 2.32762 
H 3.73236 -2.00194 3.75236 
H 2.67705 -3.41286 3.94828 
H -0.47451 -3.25836 1.14045 
H -0.90992 -4.20508 -0.26806 
H -1.47254 -5.76143 1.28637 
H -3.0147 -4.92168 1.31892 
H -0.66774 -4.54986 3.24899 
H -2.16574 -5.41359 3.5698 
H -3.44287 -3.24592 3.26423 
H -1.90037 -2.40996 3.064 
H -1.1747 -3.21045 5.32692 
H -2.75286 -3.96764 5.54836 
H -3.86673 -1.74557 5.29979 
H -2.30038 -0.97844 5.03158 
H -1.54777 -1.71648 7.30603 
H -3.11808 -2.47516 7.5782 
H -4.23949 -0.24671 7.31179 
H -2.66905 0.51075 7.03765 
H -3.39308 0.80503 9.38407 
H -3.50576 -0.95028 9.59896 
H -1.92693 -0.18824 9.32285 
H -1.66949 1.29121 -1.04496 
H 1.36739 -3.49457 -1.34199 
H 2.86353 -3.15491 -2.19021 
H 2.17282 -5.43476 -2.65467 
H 0.61241 -4.90504 -3.29028 
H 2.10703 -4.48905 -4.14929 
H 3.49001 0.25765 -0.50998 
H 4.77437 -1.62385 -1.45893 
H 6.08143 -0.52841 -1.94548 
H 5.73602 -0.80877 -0.2301 
H 4.34807 2.59515 -0.60033 
H 5.45186 1.55403 0.29642 
H 5.84206 2.02941 -1.36536 
*