!RI BP86 def2-SVP def2/J D3BJ TIGHTSCF TightOpt Grid5 FinalGrid6 freq
%maxcore 950
%pal nprocs 16
end
* xyz 0 1 
O 2.70834 2.60741 -5.29141 
C 2.17983 1.58383 -4.84984 
C 2.7874 0.18229 -5.06655 
C 2.61814 -0.22327 -6.53268 
C 1.28534 -0.96359 -6.5339 
C 1.31721 -1.72782 -5.21918 
N 2.13744 -0.91157 -4.32774 
C 2.42715 -1.15927 -2.99659 
O 3.05569 -0.32484 -2.33402 
N 0.97658 1.62435 -4.19039 
C 0.16713 2.83856 -4.01872 
C 0.64681 3.70369 -2.81841 
N 2.0129 3.88593 -2.7592 
C 2.71235 4.66385 -1.73286 
C 2.58667 4.00489 -0.33536 
N 2.38795 2.64042 -0.38315 
C 2.13472 1.80325 0.77794 
C 0.62744 1.73773 1.11357 
C 0.29613 0.61829 2.11447 
C 0.61893 -0.71883 1.47932 
N 1.79106 -1.2915 1.90993 
C 2.31456 -2.58947 1.46709 
C 2.79443 -2.54109 -0.00501 
N 1.79499 -2.45818 -0.94591 
C 1.96836 -2.51737 -2.40042 
C 2.89545 -3.65514 -2.82724 
O 3.99088 -2.5871 -0.29557 
C 1.35023 -3.75103 1.76411 
C 1.91887 -5.15527 1.46943 
C 3.15237 -5.47957 2.31295 
C 0.83633 -6.21057 1.71448 
O -0.10215 -1.23948 0.62742 
C -1.17169 0.64887 2.53217 
C -1.60395 -0.39952 3.5508 
C -3.03619 -0.1866 4.03693 
C -3.43554 -1.24204 5.06883 
C -4.87025 -1.03024 5.55478 
C -5.26962 -2.08631 6.58667 
C -6.70449 -1.87482 7.07251 
C -7.10391 -2.93095 8.10431 
C -8.53773 -2.71956 8.58978 
C -8.93873 -3.76757 9.61564 
O -1.96087 1.49898 2.10017 
O 0.24627 3.01936 1.66223 
O 2.78144 4.61045 0.71899 
C 2.3326 6.14889 -1.70262 
C 2.57323 6.8465 -3.03428 
O -0.11789 4.27487 -2.04062 
C -1.34708 2.52587 -3.94279 
C -1.72171 1.57565 -2.79927 
C -1.86175 1.96255 -5.27117 
H 3.84345 0.23975 -4.77883 
H 3.41924 -0.91464 -6.82201 
H 2.62289 0.61798 -7.23217 
H 0.45755 -0.24569 -6.53652 
H 1.16505 -1.62218 -7.39853 
H 0.32094 -1.87729 -4.79424 
H 1.80017 -2.69782 -5.35538 
H 0.66093 0.7573 -3.76589 
H 0.34201 3.46737 -4.90295 
H 2.56549 3.53825 -3.54161 
H 3.77631 4.58262 -1.99262 
H 2.32724 2.21209 -1.30568 
H 2.6983 2.2053 1.62681 
H 2.53912 0.82366 0.51498 
H 0.05683 1.60398 0.18567 
H 0.8767 0.7717 3.03261 
H 2.34557 -0.80056 2.6061 
H 3.21787 -2.72605 2.07359 
H 0.85892 -2.23992 -0.59879 
H 0.9623 -2.73092 -2.77664 
H 2.65251 -4.581 -2.29468 
H 2.81842 -3.86176 -3.89702 
H 3.94624 -3.41586 -2.63462 
H 0.4253 -3.6304 1.18789 
H 1.05142 -3.69816 2.82001 
H 2.20177 -5.21433 0.41149 
H 3.99478 -4.83135 2.05424 
H 2.94468 -5.36189 3.38179 
H 3.4778 -6.51188 2.14412 
H -0.04088 -6.02152 1.08664 
H 1.20731 -7.21243 1.47335 
H 0.51162 -6.21186 2.76062 
H -0.91459 -0.34663 4.40086 
H -1.51531 -1.38875 3.08995 
H -3.72515 -0.22548 3.18397 
H -3.13218 0.8145 4.47546 
H -2.74841 -1.19942 5.92266 
H -3.34105 -2.24158 4.62722 
H -5.55735 -1.07268 4.70091 
H -4.9647 -0.03077 5.99654 
H -4.58261 -2.04376 7.4406 
H -5.17494 -3.08576 6.14491 
H -7.39146 -1.91733 6.21854 
H -6.79917 -0.87539 7.51431 
H -6.4169 -2.8887 8.95831 
H -7.00915 -3.93048 7.66268 
H -9.22916 -2.76494 7.74032 
H -8.63684 -1.72322 9.03608 
H -9.96723 -3.59752 9.94906 
H -8.88154 -4.77472 9.19053 
H -8.28595 -3.72722 10.49347 
H -0.73521 2.98941 1.72573 
H 2.9253 6.65985 -0.93365 
H 1.28449 6.27861 -1.4112 
H 2.34632 7.91376 -2.94601 
H 3.61791 6.74726 -3.34572 
H 1.93669 6.43409 -3.82309 
H -1.87918 3.47064 -3.76814 
H -1.36256 1.94505 -1.83483 
H -2.81091 1.48019 -2.72759 
H -1.31652 0.57021 -2.95085 
H -1.62506 2.63821 -6.0997 
H -1.42283 0.98442 -5.4917 
H -2.94993 1.84068 -5.24219 
*