!RI BP86 def2-SVP def2/J D3BJ TIGHTSCF TightOpt Grid5 FinalGrid6 freq
%maxcore 950
%pal nprocs 16
end
* xyz 0 1 
O 0.67246 4.5567 -2.7791 
C 0.28928 3.41032 -2.53875 
C -0.95678 2.76664 -3.20595 
C -1.8867 3.84079 -3.77631 
C -2.76856 4.1792 -2.57881 
C -3.02074 2.81218 -1.96095 
N -1.82257 2.03414 -2.25771 
C -1.54755 0.74921 -1.83171 
O -0.47148 0.21974 -2.14995 
N 1.02786 2.56036 -1.75164 
C 2.2314 2.95365 -1.0146 
C 3.37684 1.95075 -1.29883 
N 3.39009 1.4772 -2.59751 
C 4.46409 0.65106 -3.15997 
C 4.56149 -0.70436 -2.41793 
N 3.33951 -1.18485 -1.99439 
C 3.16096 -2.36262 -1.16021 
C 2.8933 -1.94084 0.29944 
C 2.44867 -3.12135 1.16711 
C 1.18224 -3.8027 0.67736 
N 0.14142 -2.98832 0.30372 
C -1.1229 -3.50485 -0.23516 
C -1.79444 -2.3727 -1.04008 
N -1.959 -1.19109 -0.3447 
C -2.56601 0.02795 -0.89906 
C -3.91592 -0.26472 -1.54804 
O -2.21324 -2.54252 -2.18555 
C -2.02951 -4.0084 0.89989 
C -3.3875 -4.57684 0.44193 
C -3.23134 -5.79074 -0.47447 
C -4.22583 -4.95734 1.66551 
O 1.08635 -5.03175 0.63987 
C 2.3258 -2.76528 2.63972 
C 1.50426 -1.55194 3.04195 
C 0.41248 -1.93368 4.03891 
C -0.45372 -0.74471 4.46862 
C -1.37431 -0.23791 3.35459 
C -2.20442 0.98483 3.75557 
C -3.2441 0.68664 4.83752 
C -4.12357 1.90891 5.11099 
C -5.16195 1.61568 6.19361 
C -6.03836 2.82742 6.46756 
O 2.85599 -3.47417 3.50834 
O 4.09391 -1.36318 0.85174 
O 5.59947 -1.35609 -2.30825 
C 5.81766 1.36737 -3.22973 
C 5.76908 2.63622 -4.06985 
O 4.26722 1.67566 -0.49421 
C 1.96175 3.148 0.49437 
C 1.38657 1.89858 1.16621 
C 1.03475 4.34133 0.74717 
H -0.5972 2.08454 -3.98476 
H -2.50455 3.4121 -4.57539 
H -1.37641 4.71964 -4.17944 
H -2.22378 4.82017 -1.87556 
H -3.69386 4.68858 -2.86159 
H -3.20725 2.85209 -0.88482 
H -3.86686 2.33753 -2.46462 
H 0.72843 1.58594 -1.69716 
H 2.58681 3.90802 -1.425 
H 2.65043 1.79805 -3.21768 
H 4.13995 0.4074 -4.18015 
H 2.52179 -0.61421 -2.20482 
H 4.05855 -2.98665 -1.22057 
H 2.31596 -2.90995 -1.58654 
H 2.14675 -1.14189 0.30088 
H 3.2492 -3.87446 1.11721 
H 0.25468 -1.97992 0.30676 
H -0.87224 -4.31631 -0.92673 
H -1.6354 -1.14927 0.61586 
H -2.72347 0.67654 -0.02906 
H -4.43635 -1.08431 -1.03975 
H -4.58014 0.60099 -1.49123 
H -3.80833 -0.52688 -2.60561 
H -2.21252 -3.18965 1.60841 
H -1.49616 -4.77823 1.47312 
H -3.938 -3.80163 -0.10461 
H -2.74959 -5.51882 -1.41832 
H -2.63193 -6.57362 0.00232 
H -4.20898 -6.21815 -0.72247 
H -4.38229 -4.08948 2.315 
H -5.211 -5.32766 1.36257 
H -3.73641 -5.73958 2.25576 
H 1.05638 -1.09779 2.15912 
H 2.18969 -0.81373 3.47281 
H 0.87971 -2.36098 4.93512 
H -0.22136 -2.7237 3.61728 
H 0.18844 0.07019 4.82356 
H -1.06095 -1.06701 5.32196 
H -2.04269 -1.04519 3.03272 
H -0.77683 0.04524 2.48235 
H -2.71807 1.35511 2.85932 
H -1.53769 1.78847 4.09113 
H -2.7455 0.38966 5.76678 
H -3.87306 -0.15436 4.52159 
H -4.6321 2.21034 4.18706 
H -3.49448 2.75141 5.42332 
H -4.65925 1.31848 7.12133 
H -5.79549 0.77618 5.88444 
H -6.77345 2.59565 7.24463 
H -5.43809 3.67636 6.81008 
H -6.58079 3.13105 5.56649 
H 4.31151 -0.59997 0.27112 
H 6.56463 0.69262 -3.66597 
H 6.18001 1.61473 -2.22551 
H 6.76729 3.0803 -4.13831 
H 5.42414 2.4206 -5.08607 
H 5.10103 3.3826 -3.62915 
H 2.91774 3.37329 0.98542 
H 2.06488 1.04907 1.05761 
H 1.24565 2.06802 2.2394 
H 0.41556 1.61889 0.74499 
H 1.4321 5.2495 0.2821 
H 0.02928 4.16508 0.35089 
H 0.93906 4.53315 1.82142 
*