!RI BP86 def2-SVP def2/J D3BJ TIGHTSCF TightOpt Grid5 FinalGrid6 freq
%maxcore 950
%pal nprocs 16
end
* xyz 0 1 
O 2.15362 4.80533 -2.11919 
C 1.54242 3.74226 -2.235 
C 1.00219 3.24238 -3.58847 
C -0.29153 3.9982 -3.91377 
C -1.1337 2.98282 -4.67032 
C -0.79281 1.67218 -3.98328 
N 0.61274 1.8192 -3.62146 
C 1.55517 0.81085 -3.51036 
O 2.71255 1.07505 -3.16025 
N 1.18795 2.97156 -1.15177 
C 1.57636 3.2662 0.2328 
C 2.83329 2.45687 0.66056 
N 3.62975 2.0178 -0.37601 
C 4.88965 1.28897 -0.20046 
C 4.58879 -0.12657 0.34164 
N 3.55241 -0.75712 -0.3161 
C 3.08523 -2.10004 -0.00486 
C 2.25809 -2.12543 1.29998 
C 1.29581 -3.31688 1.33718 
C 0.29768 -3.34247 0.19089 
N -0.3726 -2.17442 -0.08662 
C -1.40725 -2.09034 -1.13136 
C -0.75344 -1.86332 -2.51311 
N 0.35821 -1.05088 -2.49739 
C 1.07407 -0.64392 -3.70356 
C 2.24486 -1.58475 -3.96836 
O -1.2673 -2.24801 -3.56472 
C -2.37114 -0.9416 -0.79458 
C -3.60984 -0.82428 -1.7033 
C -4.49703 -2.06782 -1.64298 
C -4.42365 0.40962 -1.30151 
O 0.08181 -4.37457 -0.44917 
C 0.59396 -3.47063 2.67761 
C -0.24148 -2.32428 3.21685 
C -1.72978 -2.64374 3.11038 
C -2.58395 -1.41126 3.41007 
C -4.0742 -1.71885 3.25411 
C -4.96638 -0.48905 3.42384 
C -4.91668 0.21161 4.78685 
C -5.46331 -0.61736 5.95563 
C -4.42705 -1.42579 6.74133 
C -3.43437 -0.5617 7.50548 
O 0.64841 -4.53965 3.3045 
O 3.15339 -2.20943 2.42936 
O 5.25006 -0.7024 1.2059 
C 5.94909 2.02512 0.62628 
C 6.31348 3.38204 0.04032 
O 3.16128 2.29722 1.83697 
C 0.35701 3.08462 1.16711 
C 0.51988 3.83652 2.49069 
C 0.00883 1.61664 1.42873 
H 1.77303 3.39624 -4.35229 
H -0.10189 4.90121 -4.50246 
H -0.81676 4.30491 -3.00033 
H -2.20306 3.20881 -4.6411 
H -0.817 2.95051 -5.71983 
H -1.35986 1.5515 -3.05392 
H -0.98176 0.81582 -4.63126 
H 0.70497 2.0988 -1.34526 
H 1.88744 4.31822 0.26248 
H 3.28508 2.13832 -1.32704 
H 5.28427 1.14354 -1.21496 
H 3.09249 -0.22996 -1.05691 
H 3.96192 -2.75176 0.0802 
H 2.49767 -2.41591 -0.8696 
H 1.72272 -1.17717 1.40546 
H 1.91012 -4.2239 1.23088 
H -0.1867 -1.33559 0.45268 
H -1.92648 -3.05342 -1.15814 
H 0.71311 -0.75476 -1.59319 
H 0.40875 -0.70154 -4.56874 
H 1.89543 -2.61379 -4.10455 
H 2.78588 -1.28386 -4.87182 
H 2.96053 -1.58601 -3.14036 
H -1.82174 0.00848 -0.83252 
H -2.70579 -1.05403 0.24502 
H -3.28677 -0.67942 -2.74077 
H -3.98565 -2.94318 -2.05394 
H -4.7919 -2.29563 -0.61301 
H -5.40981 -1.92239 -2.23089 
H -3.81585 1.3177 -1.3765 
H -5.29082 0.53501 -1.95853 
H -4.7874 0.32832 -0.27138 
H -0.00763 -1.40024 2.68484 
H 0.04535 -2.16035 4.26202 
H -1.98223 -3.45082 3.80935 
H -1.96648 -3.01932 2.10831 
H -2.30794 -0.59931 2.72676 
H -2.36818 -1.06414 4.42579 
H -4.37715 -2.5071 3.9509 
H -4.24837 -2.12187 2.24799 
H -6.00302 -0.78103 3.21338 
H -4.69764 0.24469 2.65284 
H -5.55181 1.10345 4.69843 
H -3.9107 0.58895 4.99026 
H -6.24655 -1.29465 5.59419 
H -5.95653 0.06668 6.65864 
H -3.88284 -2.11167 6.0874 
H -4.96242 -2.0507 7.46679 
H -2.78934 -1.19256 8.12572 
H -2.78854 0.00707 6.83111 
H -3.95183 0.14226 8.16484 
H 3.91061 -1.61309 2.22585 
H 6.85785 1.41167 0.67129 
H 5.62416 2.15502 1.66409 
H 7.11566 3.84164 0.62646 
H 6.66342 3.28221 -0.99206 
H 5.45859 4.06508 0.05073 
H -0.51072 3.53359 0.66293 
H 0.75291 4.89166 2.31369 
H -0.40967 3.79615 3.06924 
H 1.31198 3.41176 3.11348 
H -0.09417 1.06017 0.49345 
H 0.7693 1.11908 2.03812 
H -0.94294 1.54003 1.9656 
*