!RI BP86 def2-SVP def2/J D3BJ TIGHTSCF TightOpt Grid5 FinalGrid6 freq
%maxcore 950
%pal nprocs 16
end
* xyz 0 1 
O 2.56514 3.52131 -1.1453 
C 1.757 3.04035 -1.94221 
C 2.07431 1.78532 -2.79036 
C 3.27027 2.08906 -3.69994 
C 2.61099 2.65869 -4.94954 
C 1.36436 1.80306 -5.09587 
N 1.01863 1.38343 -3.74213 
C -0.10002 0.59618 -3.53142 
O -0.88016 0.39557 -4.47401 
N 0.50509 3.58419 -2.12512 
C 0.08944 4.84735 -1.49625 
C -0.1143 4.72024 0.03849 
N -0.26162 3.43287 0.48225 
C -0.3453 3.02023 1.8809 
C 0.38878 1.66638 1.93254 
N 0.93563 1.31556 3.144 
C 1.7184 0.097 3.28862 
C 0.83067 -1.16577 3.2563 
C 1.67245 -2.4268 3.05244 
C 2.39628 -2.45512 1.71518 
N 1.64098 -2.27982 0.5797 
C 2.21187 -2.34089 -0.77663 
C 1.19808 -1.7387 -1.78599 
N 0.62059 -0.55756 -1.37165 
C -0.4509 0.11757 -2.09687 
C -1.72905 -0.7201 -2.07587 
O 1.00562 -2.18067 -2.91884 
C 2.60205 -3.78576 -1.14992 
C 3.96642 -3.89123 -1.86494 
C 3.99818 -3.15991 -3.20684 
C 4.33119 -5.36367 -2.07281 
O 3.61425 -2.64439 1.65195 
C 0.89631 -3.71008 3.29526 
C -0.38228 -3.96392 2.51455 
C -1.51264 -4.42237 3.43219 
C -2.79138 -4.80071 2.67871 
C -3.37848 -3.71787 1.76772 
C -3.74917 -2.42859 2.50407 
C -4.38599 -1.41713 1.54834 
C -4.799 -0.1367 2.27517 
C -5.40429 0.87655 1.30329 
C -5.85557 2.13994 2.01775 
O 1.33228 -4.57175 4.07388 
O 0.11586 -1.24476 4.50671 
O 0.47691 0.92203 0.94921 
C -1.80821 2.89648 2.30987 
C -1.98165 2.69233 3.8076 
O -0.21769 5.69226 0.78717 
C -1.18025 5.44095 -2.14945 
C -0.91637 5.8455 -3.60321 
C -2.39494 4.50859 -2.07642 
H 2.31636 0.97729 -2.10037 
H 3.79021 1.15679 -3.95376 
H 3.99952 2.78032 -3.26754 
H 2.33304 3.70636 -4.78334 
H 3.25656 2.61386 -5.83092 
H 0.53178 2.34652 -5.55343 
H 1.56447 0.90288 -5.68818 
H -0.06767 3.18562 -2.86376 
H 0.92506 5.54869 -1.623 
H -0.18686 2.69411 -0.21235 
H 0.18806 3.75417 2.49516 
H 0.87259 1.96148 3.9274 
H 2.2451 0.17502 4.24576 
H 2.4566 0.09216 2.48018 
H 0.06684 -1.07491 2.47918 
H 2.45268 -2.41962 3.82871 
H 0.64416 -2.09807 0.64779 
H 3.09422 -1.68924 -0.76922 
H 0.83449 -0.20657 -0.43434 
H -0.65845 1.02929 -1.52785 
H -1.98028 -1.02007 -1.0531 
H -2.57467 -0.1534 -2.48023 
H -1.62574 -1.631 -2.67503 
H 1.82458 -4.25307 -1.76757 
H 2.65812 -4.40103 -0.2422 
H 4.73278 -3.44741 -1.21652 
H 3.83788 -2.08489 -3.08117 
H 4.97195 -3.28622 -3.69261 
H 3.23244 -3.54593 -3.88779 
H 4.36506 -5.89562 -1.11611 
H 3.6009 -5.86702 -2.71556 
H 5.317 -5.45858 -2.54039 
H -0.1604 -4.71933 1.75262 
H -0.68688 -3.0554 1.99494 
H -1.72819 -3.64092 4.1706 
H -1.18781 -5.29644 4.0106 
H -3.55063 -5.09882 3.41243 
H -2.58902 -5.68956 2.06793 
H -4.27849 -4.12835 1.29235 
H -2.68043 -3.49416 0.95259 
H -2.85745 -1.97961 2.9557 
H -4.44693 -2.65878 3.318 
H -5.26574 -1.86529 1.07058 
H -3.67502 -1.17239 0.75056 
H -3.92662 0.30405 2.77183 
H -5.5282 -0.37858 3.05787 
H -6.26346 0.43089 0.7885 
H -4.66777 1.14079 0.53534 
H -6.28904 2.84536 1.30191 
H -6.61433 1.91364 2.7736 
H -5.01447 2.63411 2.51244 
H -0.33614 -0.37958 4.60169 
H -2.29086 2.06841 1.77622 
H -2.34887 3.80752 2.02375 
H -3.04287 2.73119 4.07264 
H -1.6011 1.7179 4.12571 
H -1.46375 3.472 4.37479 
H -1.44457 6.35629 -1.60276 
H -0.06759 6.53445 -3.66708 
H -0.69858 4.97744 -4.23407 
H -1.78945 6.35417 -4.02604 
H -2.63868 4.25222 -1.04081 
H -3.27652 4.99663 -2.50658 
H -2.23194 3.57774 -2.62867 
*