!RI BP86 def2-SVP def2/J D3BJ TIGHTSCF TightOpt Grid5 FinalGrid6 freq
%maxcore 950
%pal nprocs 16
end
* xyz 0 1 
O -1.77655 2.93217 -3.48292 
C -0.74477 3.04988 -2.81701 
C -0.74616 3.72671 -1.42777 
C -0.75811 5.24958 -1.5815 
C 0.71769 5.62897 -1.51972 
C 1.28812 4.65293 -0.50378 
N 0.44611 3.46733 -0.61129 
C 0.5837 2.28744 0.08376 
O -0.22787 1.36415 -0.07644 
N 0.49478 2.73975 -3.33322 
C 0.67554 2.31079 -4.72083 
C 0.51856 0.78718 -4.92427 
N 0.99962 -0.00819 -3.91111 
C 1.12399 -1.46271 -4.04079 
C 1.35528 -2.06216 -2.64 
N 0.81917 -3.31296 -2.44948 
C 1.00302 -4.13232 -1.25571 
C -0.17987 -4.04621 -0.27021 
C -0.29389 -2.6874 0.43885 
C 0.85312 -2.51957 1.42303 
N 1.953 -1.87346 0.91987 
C 3.09634 -1.41367 1.72521 
C 3.16885 0.13612 1.636 
N 1.99215 0.71998 1.23443 
C 1.7522 2.15047 1.08553 
C 1.37731 2.75725 2.43139 
O 4.14269 0.80483 1.979 
C 4.3804 -2.08282 1.21842 
C 5.56709 -2.06172 2.2036 
C 6.82311 -2.5929 1.50579 
C 5.29352 -2.89001 3.4607 
O 0.79702 -2.90706 2.58993 
C -1.61937 -2.53274 1.17718 
C -1.94932 -1.12875 1.66908 
C -3.14564 -1.10686 2.61777 
C -3.42776 0.31272 3.11562 
C -4.64272 0.40068 4.04612 
C -4.30711 0.37788 5.54202 
C -3.674 -0.90608 6.07973 
C -4.58761 -2.12791 5.96244 
C -3.92422 -3.37198 6.55443 
C -4.82439 -4.5917 6.43866 
O -2.40539 -3.47712 1.32564 
O -1.37467 -4.35885 -1.02469 
O 2.00255 -1.47825 -1.76703 
C 2.30516 -1.82585 -4.95815 
C 2.31918 -3.29025 -5.3742 
O 0.13898 0.30977 -5.99732 
C 2.01139 2.79736 -5.33693 
C 2.00104 4.31534 -5.54025 
C 3.25766 2.3907 -4.54417 
H -1.63661 3.37006 -0.89673 
H -1.2833 5.70205 -0.73124 
H -1.2355 5.59866 -2.50208 
H 1.18565 5.47325 -2.49673 
H 0.8765 6.67236 -1.23326 
H 2.33421 4.40278 -0.69955 
H 1.19797 5.05233 0.51002 
H 1.29252 2.797 -2.70724 
H -0.14576 2.75272 -5.30163 
H 1.30087 0.42823 -3.04217 
H 0.18247 -1.83865 -4.4579 
H 0.21852 -3.69957 -3.17385 
H 1.95814 -3.89198 -0.78217 
H 1.07269 -5.16091 -1.62886 
H -0.05857 -4.84383 0.47397 
H -0.28446 -1.88171 -0.30422 
H 1.96933 -1.61847 -0.07293 
H 2.89632 -1.66112 2.77116 
H 1.22362 0.10129 0.98379 
H 2.66088 2.61035 0.68742 
H 2.18082 2.61676 3.16219 
H 1.17668 3.82863 2.35424 
H 0.47536 2.28481 2.83823 
H 4.68349 -1.59835 0.28012 
H 4.16478 -3.12921 0.96105 
H 5.77369 -1.0312 2.51135 
H 7.06449 -1.98775 0.62547 
H 7.68651 -2.55886 2.17877 
H 6.68863 -3.62974 1.17902 
H 4.48295 -2.46072 4.05625 
H 5.02194 -3.92016 3.2065 
H 6.18062 -2.92456 4.1026 
H -2.15459 -0.50951 0.78923 
H -1.0722 -0.72152 2.18281 
H -2.94844 -1.7806 3.45654 
H -4.03173 -1.49776 2.10239 
H -3.62663 0.94218 2.23839 
H -2.53939 0.73179 3.60284 
H -5.38328 -0.36795 3.79968 
H -5.13602 1.3625 3.85213 
H -5.22891 0.5763 6.10358 
H -3.6321 1.21442 5.76318 
H -3.43563 -0.74664 7.13925 
H -2.71742 -1.09317 5.58051 
H -4.83587 -2.31969 4.9132 
H -5.5312 -1.93064 6.48554 
H -3.68496 -3.2005 7.61035 
H -2.97955 -3.57218 6.03539 
H -4.3309 -5.4691 6.86822 
H -5.76678 -4.43597 6.97342 
H -5.05537 -4.81072 5.39125 
H -2.09548 -4.41096 -0.35652 
H 3.2552 -1.58463 -4.46455 
H 2.27287 -1.2197 -5.87113 
H 3.11625 -3.46404 -6.10444 
H 2.5062 -3.94938 -4.52189 
H 1.36936 -3.57735 -5.83604 
H 2.10486 2.34333 -6.33311 
H 1.13558 4.62443 -6.13563 
H 1.96739 4.84885 -4.58639 
H 2.90186 4.63976 -6.07239 
H 3.32443 1.30555 -4.42886 
H 4.16353 2.71466 -5.06894 
H 3.27821 2.84535 -3.54895 
*