!RI BP86 def2-SVP def2/J D3BJ TIGHTSCF TightOpt Grid5 FinalGrid6 freq
%maxcore 950
%pal nprocs 16
end
* xyz 0 1 
O -0.32973 1.49638 -1.09891 
C -0.42491 2.02369 -2.20956 
C -0.16269 1.28557 -3.54444 
C -1.43022 1.21565 -4.40329 
C -2.06373 -0.10292 -3.97398 
C -0.86175 -1.01289 -3.78157 
N 0.2171 -0.12098 -3.37807 
C 1.48634 -0.48938 -2.99139 
O 2.29737 0.35129 -2.58136 
N -0.74894 3.35553 -2.3741 
C -1.09741 4.30313 -1.30748 
C 0.18836 4.70929 -0.55064 
N 0.72635 3.72499 0.23928 
C 1.96954 3.863 1.00302 
C 2.371 2.46196 1.51135 
N 1.31736 1.71062 1.99271 
C 1.47923 0.38753 2.567 
C 1.66045 -0.69451 1.48632 
C 1.84324 -2.08347 2.11721 
C 2.2638 -3.1173 1.09177 
N 3.50365 -2.8955 0.5251 
C 4.06769 -3.74643 -0.52853 
C 3.19675 -3.62835 -1.80514 
N 2.79865 -2.3366 -2.08047 
C 1.8924 -1.9714 -3.16348 
C 2.546 -2.12784 -4.53416 
O 2.97536 -4.56324 -2.57452 
C 4.29615 -5.20676 -0.11139 
C 5.12426 -5.39495 1.17572 
C 6.52833 -4.8008 1.05862 
C 5.22019 -6.88499 1.51481 
O 1.57782 -4.09218 0.78587 
C 0.63698 -2.50638 2.93985 
C -0.67619 -2.83567 2.2477 
C -1.76393 -1.84175 2.64854 
C -3.04326 -2.05352 1.83826 
C -4.16912 -1.08914 2.227 
C -3.85301 0.37324 1.89648 
C -5.04956 1.31008 2.0887 
C -5.50987 1.4182 3.54386 
C -6.62144 2.45749 3.69571 
C -7.08609 2.56938 5.13901 
O 0.7099 -2.5435 4.17818 
O 0.54833 -0.68233 0.57561 
O 3.54002 2.08452 1.59783 
C 1.79072 4.82694 2.18522 
C 3.10482 5.14722 2.88456 
O 0.70602 5.82039 -0.67292 
C -2.24921 3.83341 -0.38595 
C -2.611 4.91639 0.63806 
C -3.49958 3.47771 -1.19997 
H 0.64249 1.81985 -4.06316 
H -1.15547 1.15804 -5.46391 
H -2.11638 2.05727 -4.27587 
H -2.59218 0.03055 -3.02223 
H -2.77404 -0.49448 -4.7072 
H -1.03636 -1.77722 -3.01918 
H -0.57271 -1.49787 -4.71975 
H -0.72572 3.73466 -3.31685 
H -1.43124 5.20728 -1.83498 
H 0.35146 2.7848 0.09748 
H 2.74055 4.22241 0.31221 
H 0.38921 2.12778 1.99767 
H 0.5771 0.21228 3.15948 
H 2.34183 0.40382 3.24205 
H 2.53993 -0.44301 0.88246 
H 2.68249 -2.02466 2.82666 
H 4.08103 -2.13364 0.87006 
H 5.03124 -3.29261 -0.79131 
H 3.05059 -1.60903 -1.41388 
H 1.02546 -2.6323 -3.08791 
H 2.81342 -3.16916 -4.73673 
H 1.87404 -1.79386 -5.33175 
H 3.4633 -1.53181 -4.60366 
H 4.79361 -5.7324 -0.93803 
H 3.33 -5.71171 0.01248 
H 4.61098 -4.90086 2.00959 
H 6.49284 -3.71317 0.94486 
H 7.11564 -5.01238 1.95877 
H 7.06528 -5.21733 0.19975 
H 4.22324 -7.31978 1.64307 
H 5.73417 -7.44103 0.72331 
H 5.77171 -7.03702 2.44872 
H -0.95745 -3.85604 2.53213 
H -0.54859 -2.83522 1.16233 
H -1.39633 -0.82234 2.4996 
H -1.98031 -1.94259 3.71912 
H -3.39757 -3.08036 1.99135 
H -2.82748 -1.94936 0.76783 
H -4.37998 -1.19865 3.29676 
H -5.07735 -1.38939 1.69021 
H -3.52705 0.44392 0.85128 
H -3.0207 0.73081 2.51301 
H -5.88335 0.97693 1.45892 
H -4.76267 2.30638 1.73183 
H -4.65987 1.69483 4.17923 
H -5.87671 0.4473 3.8952 
H -7.47432 2.18539 3.06304 
H -6.26487 3.43706 3.35644 
H -7.88018 3.31772 5.22458 
H -7.4796 1.6137 5.49976 
H -6.26255 2.87143 5.7939 
H 0.4871 0.23262 0.2145 
H 1.08755 4.41096 2.91744 
H 1.35179 5.77036 1.84112 
H 2.93893 5.88578 3.67545 
H 3.54041 4.25693 3.34769 
H 3.83247 5.5631 2.18051 
H -1.95211 2.94069 0.17621 
H -1.76865 5.13501 1.30189 
H -2.9058 5.84798 0.14314 
H -3.44544 4.59105 1.26873 
H -3.31468 2.6295 -1.86612 
H -4.32761 3.19693 -0.54106 
H -3.82923 4.32518 -1.81062 
*