!RI BP86 def2-SVP def2/J D3BJ TIGHTSCF TightOpt Grid5 FinalGrid6 freq
%maxcore 950
%pal nprocs 16
end
* xyz 0 1 
O 2.83909 3.28752 -4.75945 
C 2.97446 3.11085 -3.54794 
C 3.18379 4.27547 -2.55642 
C 4.67753 4.60768 -2.46494 
C 4.90045 4.93259 -0.99418 
C 3.94489 3.99283 -0.27947 
N 2.80307 3.91416 -1.1801 
C 1.47879 3.70354 -0.83633 
O 0.58524 3.82873 -1.68131 
N 3.11871 1.85769 -2.99573 
C 2.90396 0.60849 -3.72422 
C 1.61787 -0.0046 -3.1231 
N 0.75904 -0.54934 -4.04819 
C -0.46916 -1.26487 -3.69565 
C -0.1838 -2.76966 -3.90751 
N -0.52477 -3.67292 -2.93893 
C -1.07051 -3.40153 -1.6126 
C 0.04953 -3.09053 -0.59609 
C -0.43336 -2.14388 0.5146 
C 0.71106 -1.66708 1.39037 
N 1.68023 -0.9445 0.73309 
C 2.76651 -0.24006 1.42648 
C 2.34243 1.22957 1.65587 
N 1.61742 1.78848 0.62721 
C 1.19182 3.18552 0.58909 
C -0.28976 3.28207 0.93307 
O 2.74602 1.89819 2.6089 
C 4.04022 -0.30785 0.57316 
C 5.31383 0.24225 1.24359 
C 6.46269 0.2507 0.23056 
C 5.71728 -0.56614 2.47672 
O 0.75171 -1.85229 2.60713 
C -1.55946 -2.7535 1.33581 
C -2.46048 -1.77325 2.07493 
C -3.51561 -2.47698 2.92542 
C -4.40173 -1.4691 3.65828 
C -5.45901 -2.17372 4.5098 
C -6.34515 -1.16541 5.24304 
C -7.40253 -1.86998 6.09461 
C -8.28874 -0.86172 6.82782 
C -9.34546 -1.56582 7.67859 
C -10.22874 -0.56691 8.409 
O -1.73966 -3.97675 1.38711 
O 0.58077 -4.32323 -0.07233 
O 0.35119 -3.1896 -4.94149 
C -1.61526 -0.80039 -4.60022 
C -2.97077 -1.33388 -4.16102 
O 1.3854 -0.01386 -1.9094 
C 4.10419 -0.35003 -3.56878 
C 3.89089 -1.65814 -4.33769 
C 5.4053 0.30545 -4.04664 
H 2.58008 5.13325 -2.87204 
H 4.95006 5.44315 -3.11745 
H 5.30122 3.75215 -2.75202 
H 5.93906 4.79713 -0.6804 
H 4.61637 5.97426 -0.80146 
H 4.36966 2.98833 -0.18973 
H 3.67279 4.36312 0.71025 
H 3.18995 1.80448 -1.98277 
H 2.73472 0.83597 -4.78305 
H 1.06119 -0.61107 -5.01752 
H -0.70056 -1.04249 -2.65298 
H -0.28868 -4.63821 -3.15125 
H -1.62303 -4.30197 -1.32414 
H -1.78366 -2.57807 -1.69604 
H 0.88504 -2.6263 -1.12985 
H -0.84793 -1.24782 0.03125 
H 1.57574 -0.77341 -0.26953 
H 2.90979 -0.7071 2.40504 
H 1.36381 1.19702 -0.16383 
H 1.75079 3.77289 1.3214 
H -0.47681 2.91796 1.94907 
H -0.63764 4.31844 0.86978 
H -0.90111 2.68063 0.25045 
H 3.87151 0.24982 -0.35611 
H 4.21545 -1.35008 0.27323 
H 5.1438 1.27961 1.5536 
H 6.20807 0.86342 -0.64101 
H 7.37168 0.66857 0.67604 
H 6.69095 -0.76125 -0.12107 
H 4.9691 -0.48344 3.27046 
H 5.84206 -1.62662 2.23329 
H 6.66493 -0.20069 2.88709 
H -2.94862 -1.13935 1.32622 
H -1.83659 -1.13878 2.71265 
H -3.02392 -3.13478 3.65293 
H -4.13623 -3.11888 2.28783 
H -4.89398 -0.81437 2.92887 
H -3.78035 -0.83084 4.29823 
H -4.96668 -2.82858 5.23902 
H -6.08052 -2.81186 3.86989 
H -6.83744 -0.51053 4.51381 
H -5.72362 -0.52729 5.88294 
H -6.91024 -2.52485 6.82384 
H -8.02404 -2.50813 5.45468 
H -8.7809 -0.20658 6.09867 
H -7.66737 -0.22344 7.4678 
H -8.85855 -2.21888 8.41216 
H -9.97203 -2.20223 7.0429 
H -10.97701 -1.09187 9.01102 
H -9.63615 0.06462 9.07858 
H -10.75573 0.0814 7.70167 
H -0.14658 -4.72116 0.45893 
H -1.43103 -1.1041 -5.6384 
H -1.65744 0.29618 -4.59993 
H -3.75762 -0.94516 -4.81532 
H -3.00571 -2.42634 -4.20907 
H -3.20086 -1.02391 -3.13681 
H 4.22989 -0.60686 -2.51 
H 3.05221 -2.2282 -3.92698 
H 3.6916 -1.46825 -5.39773 
H 4.77718 -2.29842 -4.26997 
H 5.65282 1.1855 -3.44466 
H 6.24615 -0.39136 -3.96095 
H 5.3298 0.61787 -5.09372 
*