!RI BP86 def2-SVP def2/J D3BJ TIGHTSCF TightOpt Grid5 FinalGrid6 freq
%maxcore 950
%pal nprocs 16
end
* xyz 0 1 
O 0.59519 2.10406 -1.1866 
C 0.97732 2.83599 -2.10347 
C 2.4642 3.14175 -2.39065 
C 2.94302 2.49936 -3.6919 
C 3.43529 1.12645 -3.24531 
C 4.05105 1.39419 -1.88017 
N 3.32455 2.54625 -1.36347 
C 3.44501 3.10879 -0.10846 
O 2.79191 4.11377 0.19497 
N 0.08241 3.4205 -2.97211 
C -1.3669 3.42875 -2.70578 
C -1.93528 1.98894 -2.79684 
N -1.3117 1.17408 -3.71467 
C -1.72551 -0.20887 -3.9483 
C -1.12901 -1.17413 -2.89453 
N 0.02608 -0.73631 -2.28459 
C 0.81482 -1.54896 -1.37081 
C 0.5194 -1.20673 0.10179 
C 1.00203 -2.28419 1.08855 
C 2.47504 -2.57897 0.83345 
N 3.44104 -1.97059 1.57968 
C 3.31551 -0.91668 2.59584 
C 4.2603 0.21483 2.14596 
N 3.63899 1.22194 1.44348 
C 4.35292 2.38079 0.90888 
C 4.75393 3.33366 2.03403 
O 5.48194 0.17675 2.30259 
C 3.7069 -1.47665 3.96911 
C 3.58625 -0.46977 5.13117 
C 2.15328 0.02721 5.32865 
C 4.09136 -1.11388 6.42518 
O 2.852 -3.34447 -0.06173 
C 0.14668 -3.55248 1.06546 
C -1.36766 -3.42625 1.02732 
C -1.91373 -2.7512 2.2812 
C -3.44186 -2.7026 2.264 
C -3.99046 -2.01929 3.5176 
C -5.51903 -1.96868 3.49977 
C -6.06755 -1.28428 4.7529 
C -7.59617 -1.23378 4.73536 
C -8.14418 -0.55007 5.98773 
C -9.66359 -0.49801 5.97432 
O 0.64475 -4.68302 1.16631 
O 1.12173 0.06145 0.44573 
O -1.57741 -2.30732 -2.70695 
C -1.30034 -0.67564 -5.34516 
C -2.02355 0.07457 -6.4553 
O -2.93798 1.62654 -2.17842 
C -2.09465 4.38593 -3.68171 
C -1.62129 5.83424 -3.48939 
C -3.61834 4.34909 -3.51491 
H 2.5898 4.2305 -2.40184 
H 3.78663 3.0711 -4.0977 
H 2.17567 2.42612 -4.46771 
H 2.58479 0.44407 -3.14902 
H 4.14709 0.68082 -3.94568 
H 3.96257 0.5374 -1.20743 
H 5.10641 1.67361 -1.96729 
H 0.44517 4.00053 -3.72364 
H -1.50232 3.75854 -1.66767 
H -0.4839 1.53655 -4.18122 
H -2.81587 -0.2647 -3.84303 
H 0.29899 0.23161 -2.44096 
H 1.86082 -1.33788 -1.61393 
H 0.60624 -2.6029 -1.57905 
H -0.55577 -1.04441 0.22422 
H 0.89479 -1.91008 2.11148 
H 4.39114 -2.22856 1.32547 
H 2.2945 -0.53882 2.62263 
H 2.65086 1.10187 1.20326 
H 5.26196 2.0313 0.40823 
H 5.45224 2.8566 2.72927 
H 5.23809 4.22972 1.63117 
H 3.88168 3.65529 2.61465 
H 4.74007 -1.8482 3.92862 
H 3.08131 -2.35354 4.18533 
H 4.22381 0.39823 4.92361 
H 1.81564 0.62163 4.47444 
H 1.4577 -0.80835 5.46088 
H 2.08311 0.66841 6.21407 
H 5.13116 -1.44032 6.3174 
H 4.05131 -0.40164 7.2562 
H 3.48768 -1.98646 6.69725 
H -1.78165 -4.4393 0.94599 
H -1.67093 -2.90328 0.11617 
H -1.51907 -1.7321 2.36557 
H -1.56836 -3.29378 3.17005 
H -3.84172 -3.72165 2.19619 
H -3.78132 -2.16149 1.37231 
H -3.5901 -1.0004 3.58562 
H -3.65097 -2.56034 4.40922 
H -5.91955 -2.98752 3.43242 
H -5.85828 -1.42816 2.60772 
H -5.66712 -0.26538 4.82005 
H -5.72807 -1.82462 5.64497 
H -7.99677 -2.25262 4.66791 
H -7.93583 -0.69344 3.84333 
H -7.75008 0.47047 6.05769 
H -7.81078 -1.08879 6.88233 
H -10.03394 -0.00527 6.87874 
H -10.02931 0.0625 5.10806 
H -10.09035 -1.5054 5.93727 
H 0.76186 0.71643 -0.20174 
H -1.507 -1.74719 -5.45685 
H -0.21749 -0.55189 -5.4733 
H -1.72154 -0.31612 -7.43222 
H -3.10816 -0.04206 -6.36434 
H -1.78882 1.14334 -6.43481 
H -1.86426 4.08952 -4.71379 
H -0.55174 5.94262 -3.69246 
H -2.14839 6.5088 -4.17303 
H -1.8086 6.17767 -2.46616 
H -4.02925 3.37901 -3.81059 
H -3.90881 4.54612 -2.47745 
H -4.09855 5.10262 -4.14892 
*