!RI BP86 def2-SVP def2/J D3BJ TIGHTSCF TightOpt Grid5 FinalGrid6 freq
%maxcore 950
%pal nprocs 16
end
* xyz 0 1 
O -0.54868 4.05848 -2.81877 
C -0.555 3.37762 -1.79294 
C -0.95139 3.92094 -0.39465 
C -1.10773 5.44038 -0.38668 
C 0.31401 5.92704 -0.12548 
C 0.85833 4.90621 0.86398 
N 0.1148 3.68067 0.59373 
C 0.29393 2.46175 1.20896 
O -0.44138 1.50243 0.93433 
N -0.27957 2.03214 -1.81134 
C 0.13264 1.27186 -2.98836 
C -0.59099 -0.09659 -2.93929 
N -0.4004 -0.90482 -4.03715 
C -1.14796 -2.15509 -4.21774 
C -0.67068 -3.25104 -3.234 
N 0.6561 -3.17724 -2.8667 
C 1.32055 -4.18773 -2.06583 
C 1.92992 -3.66352 -0.75131 
C 0.90103 -3.01647 0.20247 
C 1.55079 -2.50306 1.48115 
N 2.56274 -1.5853 1.30135 
C 3.37329 -1.03124 2.39683 
C 3.12006 0.48767 2.57251 
N 1.87591 0.91367 2.17951 
C 1.43817 2.30832 2.22997 
C 0.96896 2.68703 3.62743 
O 3.91852 1.24864 3.12214 
C 4.87285 -1.2737 2.15199 
C 5.28824 -2.74648 1.97053 
C 6.79117 -2.82793 1.68767 
C 4.94565 -3.60678 3.18648 
O 1.19897 -2.85543 2.60726 
C -0.24512 -3.97177 0.50119 
C -1.6625 -3.47015 0.29076 
C -2.3297 -3.05783 1.59783 
C -2.13018 -1.57361 1.91567 
C -2.79577 -1.21013 3.24564 
C -2.60076 0.25554 3.63703 
C -3.41633 1.22588 2.77949 
C -3.22136 2.67017 3.2462 
C -4.06532 3.64303 2.42421 
C -3.84606 5.07981 2.87003 
O -0.05957 -5.11762 0.93318 
O 2.64434 -4.76078 -0.15031 
O -1.39008 -4.19473 -2.89967 
C -0.99831 -2.63576 -5.66737 
C -1.97257 -3.74579 -6.03607 
O -1.29555 -0.45042 -1.98995 
C 1.67047 1.12109 -3.08082 
C 2.27911 0.4689 -1.83664 
C 2.35751 2.46322 -3.34911 
H -1.87284 3.41385 -0.08948 
H -1.75274 5.74327 0.44692 
H -1.52809 5.85481 -1.30715 
H 0.89669 5.89771 -1.05395 
H 0.3498 6.94807 0.26441 
H 1.93235 4.74471 0.73983 
H 0.65697 5.20943 1.89573 
H -0.43834 1.50248 -0.95076 
H -0.23605 1.79107 -3.88195 
H 0.15285 -0.55435 -4.81436 
H -2.19839 -1.93991 -3.98662 
H 1.1997 -2.40212 -3.24093 
H 2.12472 -4.59531 -2.69075 
H 0.64801 -5.03035 -1.87074 
H 2.69159 -2.92071 -1.01659 
H 0.47869 -2.13562 -0.2968 
H 2.74719 -1.22052 0.37174 
H 3.06772 -1.49452 3.3413 
H 1.23324 0.2296 1.78357 
H 2.29096 2.92801 1.93942 
H 1.78683 2.60724 4.35106 
H 0.58694 3.71132 3.66024 
H 0.16623 2.02641 3.96899 
H 5.4463 -0.84402 2.98444 
H 5.17671 -0.71302 1.25683 
H 4.7711 -3.15775 1.09683 
H 7.05135 -2.24781 0.79594 
H 7.37622 -2.43951 2.52831 
H 7.09828 -3.8643 1.51126 
H 3.86478 -3.67153 3.33941 
H 5.31433 -4.62977 3.05409 
H 5.39582 -3.20122 4.0988 
H -2.2189 -4.30707 -0.14968 
H -1.68258 -2.66758 -0.45088 
H -1.96176 -3.67132 2.42899 
H -3.40687 -3.2484 1.51226 
H -2.55537 -0.9733 1.10376 
H -1.06237 -1.3379 1.9656 
H -2.3636 -1.83532 4.03709 
H -3.86647 -1.44431 3.20743 
H -1.53674 0.50876 3.58319 
H -2.9015 0.37325 4.68556 
H -4.47892 0.96117 2.83908 
H -3.12207 1.14482 1.72765 
H -2.16281 2.94231 3.16272 
H -3.49355 2.75559 4.30527 
H -5.12758 3.39227 2.52581 
H -3.81264 3.55322 1.36209 
H -4.44688 5.76195 2.26054 
H -4.13647 5.21375 3.91694 
H -2.79487 5.36706 2.76646 
H 2.99942 -4.44607 0.70467 
H 0.02688 -2.98065 -5.85131 
H -1.17163 -1.79321 -6.34905 
H -1.88435 -3.98315 -7.10121 
H -1.76866 -4.66272 -5.47594 
H -3.00615 -3.44244 -5.84191 
H 1.90578 0.47098 -3.93277 
H 1.8245 -0.50599 -1.64397 
H 3.35428 0.30918 -1.97233 
H 2.14727 1.09093 -0.94599 
H 1.9342 2.94812 -4.23482 
H 2.25846 3.14798 -2.5007 
H 3.42779 2.31641 -3.53096 
*