!RI BP86 def2-SVP def2/J D3BJ TIGHTSCF TightOpt Grid5 FinalGrid6 freq
%maxcore 950
%pal nprocs 16
end
* xyz 0 1 
O 3.92849 -3.07083 0.89145 
C 4.07125 -1.93499 1.34963 
C 5.40873 -1.17196 1.28273 
C 6.34842 -1.69479 2.37295 
C 7.1546 -0.46975 2.77907 
C 6.14321 0.65933 2.67947 
N 5.28319 0.26647 1.57204 
C 4.56177 1.10373 0.74647 
O 3.99369 0.65446 -0.25939 
N 3.0702 -1.2981 2.04776 
C 1.72461 -1.84037 2.19144 
C 0.95904 -1.48353 0.88931 
N 1.22386 -2.34797 -0.15392 
C 0.35173 -2.52628 -1.314 
C 0.23678 -1.29592 -2.24327 
N 1.3658 -0.50809 -2.33283 
C 1.44724 0.64404 -3.22597 
C 1.22887 1.99369 -2.50914 
C -0.12246 2.08868 -1.77393 
C -0.00933 3.06295 -0.62108 
N 0.30117 2.46199 0.57915 
C 0.67255 3.1949 1.79312 
C 2.1308 2.7926 2.13163 
N 3.0103 2.94101 1.07762 
C 4.42443 2.58483 1.16121 
C 5.26199 3.45438 0.23681 
O 2.51411 2.45047 3.25046 
C -0.32623 2.88049 2.91251 
C -0.24366 3.81092 4.13994 
C -0.64565 5.24897 3.80675 
C -1.14565 3.2718 5.25423 
O -0.15621 4.27826 -0.74162 
C -1.25674 2.46107 -2.71618 
C -2.6352 2.6228 -2.0865 
C -3.76898 2.13016 -2.98464 
C -3.71298 0.6148 -3.19751 
C -4.926 0.10637 -3.97817 
C -4.83413 -1.38368 -4.32332 
C -4.86672 -2.2959 -3.09466 
C -4.8369 -3.77175 -3.49759 
C -4.87942 -4.68229 -2.27064 
C -4.82259 -6.14979 -2.66299 
O -1.09117 2.61431 -3.93235 
O 2.34546 2.24915 -1.63455 
O -0.74185 -1.09675 -2.96712 
C -1.04021 -3.05126 -0.92255 
C -0.98787 -4.37702 -0.17448 
O 0.23304 -0.49637 0.76114 
C 1.02503 -1.2865 3.4507 
C -0.36534 -1.90712 3.63154 
C 1.8531 -1.54713 4.7153 
H 5.83307 -1.28222 0.27851 
H 6.98354 -2.50965 2.01188 
H 5.78757 -2.07147 3.23771 
H 7.5923 -0.55753 3.77713 
H 7.96748 -0.3098 2.06034 
H 5.52052 0.72198 3.57827 
H 6.62308 1.62444 2.49862 
H 3.24745 -0.35004 2.36995 
H 1.79608 -2.93342 2.26163 
H 1.95682 -3.04241 -0.00491 
H 0.8492 -3.29235 -1.92396 
H 2.15462 -0.74072 -1.72989 
H 0.72809 0.5261 -4.04263 
H 2.45539 0.61627 -3.65397 
H 1.29143 2.78482 -3.26571 
H -0.39801 1.11758 -1.35329 
H 0.38544 1.44198 0.6123 
H 0.67782 4.26429 1.56262 
H 2.6118 3.06768 0.14468 
H 4.74142 2.73404 2.19588 
H 5.15803 4.51262 0.49863 
H 6.32141 3.18534 0.30264 
H 4.95603 3.33989 -0.80916 
H -0.18189 1.84308 3.23851 
H -1.34646 2.92683 2.50693 
H 0.78226 3.82444 4.52418 
H 0.0581 5.71034 3.10813 
H -1.64539 5.2892 3.36128 
H -0.65467 5.86812 4.71047 
H -0.84676 2.25762 5.54008 
H -1.07975 3.90158 6.14782 
H -2.19385 3.24071 4.93774 
H -2.77125 3.6871 -1.86559 
H -2.66452 2.07826 -1.13603 
H -3.73671 2.64129 -3.95415 
H -4.72383 2.3946 -2.51433 
H -3.66125 0.11849 -2.22219 
H -2.80125 0.35593 -3.74617 
H -5.01272 0.67094 -4.91474 
H -5.84244 0.29706 -3.40684 
H -3.91915 -1.57036 -4.89878 
H -5.67649 -1.63643 -4.97914 
H -5.77167 -2.09151 -2.50998 
H -4.00756 -2.08868 -2.44748 
H -3.92681 -3.97503 -4.07515 
H -5.69049 -3.99404 -4.14942 
H -5.79773 -4.49683 -1.70145 
H -4.03665 -4.45521 -1.60823 
H -4.85543 -6.78223 -1.77033 
H -5.67026 -6.41844 -3.30139 
H -3.89857 -6.37525 -3.20494 
H 2.65337 1.38 -1.28541 
H -1.64775 -3.19317 -1.82469 
H -1.56833 -2.31192 -0.30838 
H -2.00234 -4.7337 0.02992 
H -0.47357 -5.14056 -0.76656 
H -0.47152 -4.27713 0.78509 
H 0.90473 -0.20149 3.35078 
H -1.02308 -1.67901 2.78756 
H -0.3027 -2.99667 3.72612 
H -0.84869 -1.51742 4.53404 
H 2.81815 -1.03184 4.67506 
H 1.32819 -1.18197 5.60476 
H 2.04357 -2.6173 4.85032 
*