!RI BP86 def2-SVP def2/J D3BJ TIGHTSCF TightOpt Grid5 FinalGrid6 freq
%maxcore 950
%pal nprocs 16
end
* xyz 0 1 
O 6.96512 0.15629 0.19846 
C 5.97098 0.44202 0.86947 
C 5.282 1.81737 0.76741 
C 6.117 2.8871 1.47443 
C 5.5035 2.95331 2.86898 
C 4.01984 2.75602 2.60301 
N 3.96999 1.89976 1.42428 
C 2.84929 1.3385 0.84895 
O 2.96588 0.56311 -0.1086 
N 5.46835 -0.40407 1.83188 
C 6.03893 -1.72623 2.07889 
C 5.51237 -2.771 1.06688 
N 4.20299 -2.60543 0.67643 
C 3.49186 -3.53085 -0.20715 
C 2.11697 -2.9131 -0.52966 
N 1.71903 -3.00559 -1.84651 
C 0.35477 -2.71646 -2.25833 
C 0.07079 -1.22388 -2.53836 
C -1.42407 -0.90665 -2.38865 
C -1.91272 -0.52237 -0.99186 
N -1.26234 -1.07303 0.0863 
C -1.54426 -0.68162 1.47384 
C -0.67455 0.54105 1.85874 
N 0.50622 0.67624 1.16402 
C 1.46708 1.74711 1.40603 
C 1.01028 3.03135 0.71976 
O -0.95822 1.28293 2.8024 
C -1.26414 -1.86968 2.40643 
C -1.71497 -1.69026 3.87025 
C -1.30901 -2.9216 4.68634 
C -3.22154 -1.46334 3.99757 
O -2.88743 0.21863 -0.8294 
C -1.77883 0.17273 -3.40028 
C -1.17799 1.561 -3.20562 
C -2.03397 2.67396 -3.80831 
C -3.33344 2.89212 -3.02675 
C -4.16605 4.01994 -3.63928 
C -5.42106 4.35976 -2.82928 
C -6.41227 3.21113 -2.61758 
C -6.94872 2.61968 -3.92253 
C -8.01268 1.55529 -3.65115 
C -8.54563 0.95826 -4.94387 
O -2.47614 -0.09547 -4.38855 
O 0.83292 -0.34481 -1.70011 
O 1.39779 -2.39664 0.33024 
C 3.26968 -4.89932 0.46137 
C 2.71887 -5.94658 -0.49769 
O 6.17443 -3.75964 0.74358 
C 5.83505 -2.20687 3.53456 
C 6.6021 -1.31229 4.51418 
C 4.36835 -2.30674 3.96746 
H 5.16364 2.03829 -0.29999 
H 5.98096 3.85324 0.97292 
H 7.18824 2.66671 1.50511 
H 5.88943 2.13275 3.48517 
H 5.71617 3.89421 3.38386 
H 3.50278 2.28758 3.44467 
H 3.53068 3.70459 2.36143 
H 4.63052 -0.1093 2.32457 
H 7.11761 -1.65461 1.88448 
H 3.72617 -1.74841 0.95314 
H 4.09035 -3.63852 -1.11864 
H 2.3577 -3.40732 -2.52891 
H -0.3096 -3.11302 -1.48315 
H 0.15226 -3.30216 -3.16235 
H 0.40733 -1.02058 -3.56307 
H -2.0116 -1.78846 -2.68058 
H -0.39682 -1.59269 -0.05594 
H -2.59171 -0.37054 1.52714 
H 0.68898 0.0554 0.37268 
H 1.52354 1.9011 2.48699 
H 0.03848 3.35965 1.10302 
H 1.7259 3.84498 0.87044 
H 0.90509 2.88239 -0.36137 
H -0.18696 -2.08132 2.40277 
H -1.75006 -2.76494 1.99451 
H -1.19831 -0.82736 4.30561 
H -0.22614 -3.07925 4.64049 
H -1.58236 -2.79801 5.73967 
H -1.80029 -3.8265 4.31264 
H -3.52129 -0.51148 3.54952 
H -3.78655 -2.26488 3.51001 
H -3.52185 -1.43131 5.05059 
H -0.19468 1.55628 -3.68913 
H -1.02231 1.7572 -2.14031 
H -2.26406 2.45215 -4.85723 
H -1.4513 3.60326 -3.79966 
H -3.09718 3.13488 -1.98369 
H -3.91492 1.96424 -3.02135 
H -4.44199 3.76144 -4.66809 
H -3.55047 4.92594 -3.70557 
H -5.93995 5.18813 -3.32769 
H -5.11533 4.73701 -1.84534 
H -7.25299 3.59505 -2.0259 
H -5.94936 2.422 -2.01384 
H -6.13063 2.16851 -4.49521 
H -7.37697 3.41852 -4.53987 
H -8.84467 1.99455 -3.08854 
H -7.58921 0.75498 -3.03313 
H -9.30515 0.20074 -4.72664 
H -9.00398 1.72868 -5.57209 
H -7.74337 0.48074 -5.51548 
H 1.76304 -0.65711 -1.73693 
H 2.58482 -4.79843 1.31303 
H 4.20997 -5.28347 0.87085 
H 2.65625 -6.91781 0.00373 
H 1.71339 -5.68775 -0.84207 
H 3.36802 -6.05836 -1.37182 
H 6.261 -3.21633 3.6146 
H 7.66158 -1.2558 4.24314 
H 6.19932 -0.29421 4.53051 
H 6.54117 -1.71249 5.53197 
H 3.8122 -3.00858 3.33962 
H 4.29981 -2.67516 4.99723 
H 3.8618 -1.33741 3.93259 
*