!RI BP86 def2-SVP def2/J D3BJ TIGHTSCF TightOpt Grid5 FinalGrid6 freq
%maxcore 950
%pal nprocs 16
end
* xyz 0 1 
O 6.35551 1.55304 -1.03771 
C 5.16237 1.37835 -0.78027 
C 4.09955 2.49993 -0.88597 
C 4.74225 3.88752 -0.95653 
C 4.86562 4.27503 0.5131 
C 3.57199 3.746 1.11366 
N 3.21265 2.59927 0.28516 
C 2.11833 1.78175 0.46069 
O 1.9709 0.76859 -0.23699 
N 4.66172 0.123 -0.51305 
C 5.50607 -1.07283 -0.48624 
C 4.68033 -2.3627 -0.69361 
N 3.51923 -2.46238 0.03622 
C 2.73654 -3.69993 0.11678 
C 1.3603 -3.35717 0.7238 
N 0.36014 -4.26104 0.45336 
C -0.93849 -4.25783 1.10105 
C -2.09664 -3.69006 0.26299 
C -2.12023 -2.19332 -0.08739 
C -2.29055 -1.30176 1.1301 
N -1.24604 -1.23283 2.01378 
C -1.25307 -0.39096 3.21768 
C -0.56564 0.97028 2.96408 
N 0.32344 0.99864 1.91734 
C 1.05628 2.19347 1.50361 
C 0.10958 3.21195 0.86995 
O -0.72023 1.93681 3.71409 
C -0.54127 -1.09133 4.38533 
C -1.27959 -2.32754 4.93651 
C -0.39148 -3.04788 5.95448 
C -2.61618 -1.96441 5.58557 
O -3.33202 -0.66596 1.31402 
C -1.05728 -1.73935 -1.07448 
C -0.96802 -0.2604 -1.40347 
C -2.073 0.15469 -2.36846 
C -1.93932 1.62514 -2.76473 
C -3.03677 2.03991 -3.74573 
C -2.90353 3.51235 -4.13782 
C -4.00103 3.92853 -5.11851 
C -3.8677 5.40099 -5.51045 
C -4.96417 5.81682 -6.49077 
C -4.83526 7.2801 -6.88281 
O -0.37036 -2.54602 -1.71843 
O -2.23299 -4.48428 -0.93837 
O 1.17293 -2.36613 1.43627 
C 3.46289 -4.72964 1.00318 
C 2.94807 -6.15301 0.84136 
O 5.10581 -3.30669 -1.36514 
C 6.38729 -1.12291 0.7899 
C 7.39413 -2.27571 0.73841 
C 5.59313 -1.17979 2.09832 
H 3.50163 2.29331 -1.78162 
H 4.06178 4.58599 -1.45982 
H 5.70271 3.91907 -1.47796 
H 5.72689 3.76799 0.96423 
H 4.98723 5.35148 0.6618 
H 3.6873 3.44025 2.15739 
H 2.77683 4.49355 1.04638 
H 3.64681 0.0251 -0.4503 
H 6.16663 -0.99649 -1.36074 
H 3.21031 -1.67794 0.6066 
H 2.60715 -4.0807 -0.90281 
H 0.55038 -5.00618 -0.21232 
H -0.86229 -3.77347 2.0746 
H -1.1487 -5.31674 1.29621 
H -3.00848 -3.89337 0.84014 
H -3.04843 -2.0584 -0.66593 
H -0.36342 -1.69702 1.78783 
H -2.29048 -0.15488 3.47551 
H 0.47529 0.14508 1.38321 
H 1.5323 2.61354 2.39413 
H -0.64702 3.5519 1.5841 
H 0.64342 4.09355 0.5047 
H -0.41814 2.77609 0.01457 
H -0.391 -0.37537 5.20469 
H 0.46506 -1.38902 4.0604 
H -1.47942 -3.02746 4.11867 
H 0.55341 -3.35785 5.49554 
H -0.1592 -2.40154 6.80776 
H -0.88624 -3.94767 6.33534 
H -3.32259 -1.5672 4.85092 
H -3.08181 -2.84836 6.03491 
H -2.48485 -1.21543 6.37377 
H 0.01453 -0.07903 -1.8539 
H -1.00759 0.32992 -0.4861 
H -3.05388 -0.0119 -1.90755 
H -2.03633 -0.47737 -3.26445 
H -0.95594 1.79635 -3.21927 
H -1.99504 2.25251 -1.86719 
H -4.02006 1.86823 -3.29113 
H -2.98209 1.41375 -4.64455 
H -1.92023 3.68384 -4.59249 
H -2.9576 4.13823 -3.23872 
H -4.98432 3.75702 -4.66382 
H -3.94687 3.3027 -6.01762 
H -2.88425 5.57278 -5.96476 
H -3.92196 6.02697 -4.6114 
H -5.94951 5.65087 -6.03992 
H -4.91164 5.19684 -7.3933 
H -5.62882 7.55586 -7.58432 
H -4.91638 7.92989 -6.00558 
H -3.87226 7.47341 -7.36613 
H -1.43405 -4.26924 -1.47216 
H 3.38836 -4.43917 2.05887 
H 4.53335 -4.74041 0.76601 
H 3.59459 -6.84766 1.38778 
H 1.93809 -6.26628 1.24368 
H 2.94299 -6.4539 -0.21084 
H 6.97485 -0.19592 0.82413 
H 7.98197 -2.23922 -0.18465 
H 8.09284 -2.21312 1.57981 
H 6.89889 -3.25054 0.79196 
H 4.85298 -0.3754 2.15387 
H 5.07628 -2.13605 2.22164 
H 6.26662 -1.06387 2.95492 
*