!RI BP86 def2-SVP def2/J D3BJ TIGHTSCF TightOpt Grid5 FinalGrid6 freq
%maxcore 950
%pal nprocs 16
end
* xyz 0 1 
O 4.26695 -2.16074 -1.84785 
C 3.58301 -1.26927 -1.34012 
C 3.03069 -0.06414 -2.14597 
C 3.93044 0.26986 -3.33718 
C 4.93788 1.24103 -2.72984 
C 4.08355 2.07928 -1.78948 
N 2.98528 1.20325 -1.39525 
C 1.95571 1.52205 -0.53946 
O 1.11013 0.66718 -0.23744 
N 3.12872 -1.36869 -0.04498 
C 3.49091 -2.47818 0.84222 
C 2.47181 -3.62049 0.61555 
N 1.15364 -3.24368 0.73631 
C 0.01069 -4.14819 0.55391 
C -1.25813 -3.26855 0.53069 
N -1.33067 -2.3681 1.57183 
C -2.36227 -1.35118 1.7192 
C -1.68935 -0.00342 2.04744 
C -2.64528 1.1974 2.07639 
C -1.95857 2.53726 2.35879 
N -0.802 2.48639 3.09711 
C 0.05126 3.65411 3.3674 
C 0.94437 3.95832 2.13543 
N 1.10679 2.90686 1.26518 
C 1.8669 2.96142 0.01693 
C 1.17207 3.86337 -0.99971 
O 1.5349 5.02851 1.98231 
C 0.90642 3.37076 4.6116 
C 1.72956 4.55853 5.14889 
C 2.54769 4.10856 6.36342 
C 0.85598 5.75344 5.53138 
O -2.4206 3.61194 1.96844 
C -3.41055 1.26316 0.76006 
C -2.67674 1.72163 -0.49367 
C -2.34789 0.55486 -1.41936 
C -1.58066 1.02328 -2.65597 
C -1.08936 -0.16189 -3.48791 
C -0.25017 0.30739 -4.67733 
C 0.32609 -0.8779 -5.45284 
C 1.17653 -0.40865 -6.63406 
C 1.77527 -1.5927 -7.39243 
C 2.6251 -1.13034 -8.56518 
O -4.5884 0.88434 0.69319 
O -1.0236 -0.15453 3.33028 
O -2.15806 -3.4072 -0.29706 
C -0.07599 -5.19535 1.67403 
C -1.1707 -6.22433 1.42513 
O 2.81305 -4.79066 0.43887 
C 3.51675 -2.01874 2.31775 
C 4.51007 -0.86818 2.5234 
C 3.88399 -3.17237 3.2573 
H 2.02008 -0.33611 -2.46955 
H 3.3479 0.78757 -4.10927 
H 4.41347 -0.59442 -3.80078 
H 5.69485 0.68852 -2.16042 
H 5.4519 1.84714 -3.48091 
H 4.63703 2.4172 -0.90891 
H 3.67166 2.94898 -2.30834 
H 2.41655 -0.70603 0.25753 
H 4.47745 -2.85354 0.54335 
H 0.96035 -2.24744 0.81422 
H 0.1282 -4.62865 -0.42399 
H -0.61025 -2.40174 2.29129 
H -3.00265 -1.67767 2.54536 
H -2.96076 -1.31463 0.80688 
H -0.8888 0.18273 1.32466 
H -3.37065 1.06699 2.89021 
H -0.48971 1.57232 3.43502 
H -0.61071 4.51271 3.51682 
H 0.62757 2.03563 1.48358 
H 2.86379 3.34363 0.25407 
H 1.16339 4.90491 -0.66294 
H 1.66027 3.8329 -1.97728 
H 0.12989 3.56079 -1.14697 
H 1.59308 2.54205 4.38871 
H 0.2488 3.0083 5.41406 
H 2.4414 4.88322 4.38169 
H 3.20878 3.27594 6.10047 
H 3.17463 4.92614 6.73495 
H 1.89785 3.78111 7.18216 
H 0.36943 6.18903 4.65371 
H 0.0784 5.46425 6.24634 
H 1.45906 6.5444 5.99042 
H -1.75657 2.24307 -0.2164 
H -3.3142 2.45429 -1.00183 
H -3.26915 0.04279 -1.72218 
H -1.74216 -0.18252 -0.883 
H -0.71845 1.62445 -2.34651 
H -2.22206 1.66955 -3.2669 
H -1.94672 -0.74486 -3.8451 
H -0.48753 -0.82681 -2.85623 
H 0.57008 0.94276 -4.32142 
H -0.86827 0.92165 -5.34317 
H -0.4911 -1.5128 -5.81605 
H 0.93909 -1.49178 -4.78152 
H 1.98321 0.24028 -6.27233 
H 0.56049 0.19146 -7.31476 
H 0.97342 -2.24199 -7.76271 
H 2.39367 -2.19395 -6.71576 
H 3.04366 -1.99279 -9.09326 
H 2.02862 -0.5521 -9.27805 
H 3.45614 -0.50442 -8.22464 
H -1.70405 -0.47551 3.96003 
H -0.2517 -4.71348 2.64349 
H 0.8756 -5.72989 1.76816 
H -1.15952 -6.98316 2.21411 
H -2.16237 -5.762 1.42188 
H -1.02159 -6.73087 0.46629 
H 2.52233 -1.65357 2.60685 
H 4.22406 0.01506 1.94306 
H 4.54336 -0.5676 3.57624 
H 5.52204 -1.16038 2.22294 
H 3.13602 -3.9706 3.22079 
H 4.85619 -3.60317 2.99476 
H 3.93726 -2.826 4.29516 
*