!RI BP86 def2-SVP def2/J D3BJ TIGHTSCF TightOpt Grid5 FinalGrid6 freq
%maxcore 950
%pal nprocs 16
end
* xyz 0 1 
O 7.87438 -0.35564 0.99504 
C 6.77258 0.00169 1.41874 
C 6.38813 1.48869 1.5334 
C 6.91601 2.07906 2.8447 
C 5.71174 2.02634 3.77973 
C 4.54613 2.32961 2.85441 
N 4.94501 1.76629 1.57123 
C 4.18142 1.72352 0.41926 
O 4.59789 1.13692 -0.58603 
N 5.87595 -0.88957 1.96023 
C 6.09472 -2.34074 1.91732 
C 5.52864 -2.85698 0.57267 
N 4.25425 -2.42714 0.29975 
C 3.46579 -2.79973 -0.87587 
C 2.28534 -1.81154 -0.88103 
N 1.67757 -1.58241 -2.09037 
C 0.48637 -0.7478 -2.20009 
C -0.75674 -1.47713 -1.6455 
C -1.86907 -0.56146 -1.11574 
C -1.46635 0.38096 0.01717 
N -0.58441 -0.0947 0.95896 
C -0.23205 0.67143 2.16499 
C 0.76479 1.7954 1.80861 
N 1.79036 1.42961 0.96686 
C 2.78137 2.37561 0.46991 
C 2.37309 2.86319 -0.9183 
O 0.72163 2.90741 2.3399 
C 0.36433 -0.27406 3.22038 
C 0.69862 0.37947 4.57598 
C -0.5415 0.93691 5.27477 
C 1.39012 -0.64213 5.48358 
O -1.96221 1.50522 0.13639 
C -2.54422 0.20218 -2.24636 
C -4.00513 0.56943 -2.06094 
C -4.89424 -0.47641 -2.72499 
C -6.3874 -0.25485 -2.47147 
C -6.95009 1.08864 -2.94537 
C -6.79059 1.31906 -4.44945 
C -7.46853 2.61997 -4.88542 
C -7.30612 2.85542 -6.38804 
C -7.98294 4.15483 -6.82346 
C -7.82379 4.3926 -8.31666 
O -1.96054 0.48723 -3.29965 
O -1.27533 -2.39096 -2.6392 
O 1.87559 -1.27588 0.15646 
C 2.96762 -4.24679 -0.76247 
C 2.36136 -4.7838 -2.05093 
O 6.11644 -3.67541 -0.13491 
C 5.4258 -3.03821 3.12316 
C 5.60832 -4.55893 3.067 
C 5.99322 -2.51621 4.44863 
H 6.82186 1.99815 0.66437 
H 7.20448 3.12566 2.68669 
H 7.78004 1.54719 3.2545 
H 5.60865 1.02064 4.20213 
H 5.78557 2.73622 4.60817 
H 3.60568 1.89019 3.19567 
H 4.41637 3.40993 2.72919 
H 4.9786 -0.52382 2.26764 
H 7.17436 -2.53379 1.91423 
H 3.82424 -1.7662 0.94322 
H 4.08941 -2.65603 -1.76466 
H 2.0312 -2.04386 -2.92463 
H 0.37888 -0.51377 -3.2633 
H 0.68565 0.17733 -1.65293 
H -0.45391 -2.13572 -0.82451 
H -2.6431 -1.22362 -0.70202 
H -0.04049 -0.93661 0.7805 
H -1.15203 1.14131 2.52854 
H 1.81176 0.46693 0.62094 
H 2.81388 3.25031 1.12619 
H 1.39653 3.35836 -0.88677 
H 3.10644 3.57534 -1.31135 
H 2.30015 2.03397 -1.63051 
H 1.28047 -0.72881 2.81967 
H -0.3345 -1.10562 3.38529 
H 1.40373 1.20372 4.41755 
H -0.9834 1.76053 4.70631 
H -1.3053 0.16298 5.40554 
H -0.28552 1.32886 6.26514 
H 2.30632 -1.01983 5.01681 
H 1.6682 -0.18747 6.44035 
H 0.73704 -1.49663 5.69109 
H -4.15515 1.56196 -2.499 
H -4.23148 0.65122 -0.99298 
H -4.62716 -1.47186 -2.34727 
H -4.69296 -0.50717 -3.80238 
H -6.58171 -0.35085 -1.39588 
H -6.9454 -1.06477 -2.95773 
H -6.48003 1.90932 -2.39132 
H -8.01687 1.11748 -2.68967 
H -7.2261 0.47585 -4.99892 
H -5.72766 1.36509 -4.71174 
H -7.03556 3.4625 -4.33251 
H -8.53524 2.58126 -4.63326 
H -7.73864 2.0126 -6.94089 
H -6.2395 2.89423 -6.64084 
H -7.55115 5.00113 -6.27662 
H -9.05046 4.11966 -6.57677 
H -8.31497 5.32686 -8.60615 
H -6.76677 4.46502 -8.59194 
H -8.2745 3.57884 -8.89371 
H -1.42815 -1.85546 -3.44751 
H 2.22709 -4.33101 0.04307 
H 3.79895 -4.90553 -0.4848 
H 2.14263 -5.85136 -1.94445 
H 1.42113 -4.28134 -2.29369 
H 3.05092 -4.66248 -2.89209 
H 4.34784 -2.82901 3.11691 
H 5.11256 -4.98866 2.19099 
H 6.66887 -4.82966 3.02677 
H 5.17134 -5.03563 3.95121 
H 5.79478 -1.44756 4.57409 
H 5.53402 -3.03314 5.29824 
H 7.07621 -2.67052 4.50408 
*