!RI BP86 def2-SVP def2/J D3BJ TIGHTSCF TightOpt Grid5 FinalGrid6 freq
%maxcore 950
%pal nprocs 16
end
* xyz 0 1 
O 6.38332 -1.24603 2.37343 
C 5.3559 -0.56692 2.42216 
C 5.25616 0.71537 3.27669 
C 5.00495 0.36472 4.74446 
C 3.48733 0.43237 4.87677 
C 3.10918 1.59029 3.96693 
N 4.12336 1.58342 2.91837 
C 4.18725 2.42572 1.82185 
O 5.15547 2.38164 1.05533 
N 4.17731 -0.97179 1.8409 
C 4.06772 -2.12138 0.94463 
C 4.07426 -1.61128 -0.52095 
N 4.25434 -2.59183 -1.47534 
C 4.75712 -2.27686 -2.81775 
C 3.78948 -1.42802 -3.66999 
N 2.45133 -1.62214 -3.41883 
C 1.38789 -0.88932 -4.09371 
C 0.89403 0.32204 -3.27188 
C 0.39851 -0.0335 -1.864 
C -0.20478 1.17229 -1.16697 
N -0.13825 1.10492 0.20886 
C -0.61749 2.17382 1.08765 
C 0.5314 3.12284 1.50616 
N 1.80267 2.66927 1.23484 
C 3.00826 3.40482 1.60716 
C 3.34123 4.43734 0.53363 
O 0.33024 4.17343 2.11911 
C -1.26473 1.58787 2.35181 
C -2.47382 0.66583 2.09174 
C -3.61715 1.38869 1.37825 
C -2.97553 0.08639 3.41701 
O -0.73654 2.11455 -1.75153 
C -0.53834 -1.23028 -1.86623 
C -2.04115 -1.02289 -1.92617 
C -2.51162 -0.52207 -3.28592 
C -4.03574 -0.53241 -3.43679 
C -4.74296 0.4027 -2.45291 
C -6.24819 0.45968 -2.71924 
C -6.95115 1.38265 -1.72207 
C -8.45684 1.44151 -1.98359 
C -9.15825 2.3631 -0.98613 
C -10.65561 2.42458 -1.24219 
O -0.07732 -2.38247 -1.84383 
O 1.98427 1.26851 -3.16255 
O 4.18705 -0.71329 -4.59288 
C 5.08375 -3.55896 -3.59698 
C 6.30454 -4.2844 -3.04628 
O 3.95091 -0.42203 -0.8264 
C 2.86575 -3.02792 1.28531 
C 1.53981 -2.27259 1.37261 
C 3.11222 -3.7816 2.59675 
H 6.19484 1.26642 3.14742 
H 5.45809 1.12824 5.38873 
H 5.40193 -0.61088 5.04077 
H 3.0383 -0.49836 4.51048 
H 3.15654 0.58443 5.90788 
H 2.10691 1.47443 3.54997 
H 3.1715 2.54885 4.49293 
H 3.41558 -0.29929 1.84869 
H 4.98537 -2.71675 1.04265 
H 4.33758 -3.55204 -1.15366 
H 5.66165 -1.66992 -2.6825 
H 2.19655 -2.27115 -2.67407 
H 0.57683 -1.59482 -4.2959 
H 1.76981 -0.53659 -5.05822 
H 0.11082 0.82637 -3.84689 
H 1.2708 -0.31547 -1.26204 
H 0.3127 0.30751 0.64833 
H -1.33352 2.79386 0.53767 
H 1.89972 1.82356 0.679 
H 2.82495 3.93472 2.54874 
H 2.52669 5.1601 0.41705 
H 4.25144 4.98941 0.79077 
H 3.50128 3.96074 -0.44039 
H -1.57346 2.40888 3.01277 
H -0.50493 1.02284 2.90973 
H -2.15569 -0.17638 1.46533 
H -3.32465 1.70367 0.37223 
H -4.48546 0.72963 1.26993 
H -3.93467 2.27639 1.93549 
H -2.18026 -0.47029 3.92404 
H -3.32041 0.8771 4.09202 
H -3.80935 -0.60361 3.24925 
H -2.34006 -0.35085 -1.11771 
H -2.51093 -1.99001 -1.70703 
H -2.07764 -1.1486 -4.07495 
H -2.14464 0.49434 -3.46228 
H -4.4111 -1.55511 -3.30986 
H -4.28104 -0.23055 -4.46251 
H -4.31753 1.41049 -2.53133 
H -4.57717 0.05817 -1.42622 
H -6.6723 -0.54931 -2.64866 
H -6.42817 0.8163 -3.74063 
H -6.52609 2.39132 -1.79263 
H -6.76945 1.02642 -0.70065 
H -8.88179 0.43277 -1.9134 
H -8.6389 1.79847 -3.00461 
H -8.73988 3.374 -1.05511 
H -8.98256 2.00825 0.0361 
H -11.13705 3.08893 -0.51779 
H -10.86659 2.80665 -2.24611 
H -11.11062 1.43332 -1.14881 
H 2.73096 0.7727 -2.76046 
H 5.27613 -3.31717 -4.64974 
H 4.22306 -4.23948 -3.58471 
H 6.52212 -5.16834 -3.6543 
H 7.18618 -3.63584 -3.06543 
H 6.14519 -4.61807 -2.01664 
H 2.75927 -3.78109 0.49447 
H 1.34928 -1.72529 0.45011 
H 0.70834 -2.97025 1.52061 
H 1.52448 -1.56082 2.20444 
H 4.03347 -4.37091 2.5397 
H 3.19935 -3.09545 3.4459 
H 2.28873 -4.47267 2.80654 
*