!RI BP86 def2-SVP def2/J D3BJ TIGHTSCF TightOpt Grid5 FinalGrid6 freq
%maxcore 950
%pal nprocs 16
end
* xyz 0 1 
O 7.529 0.93108 2.07235 
C 6.37361 0.6857 2.42158 
C 5.83049 1.04745 3.82479 
C 6.35873 0.07963 4.88192 
C 5.29065 -1.0074 4.93762 
C 3.9923 -0.24383 4.72264 
N 4.36808 0.91383 3.91988 
C 3.52912 1.86548 3.38169 
O 3.99055 2.82915 2.75562 
N 5.49849 -0.01897 1.6323 
C 5.73493 -0.39502 0.24337 
C 4.46069 -0.02537 -0.55087 
N 4.6061 -0.00436 -1.91661 
C 3.51018 0.29606 -2.84572 
C 2.76215 -1.00925 -3.2241 
N 2.30565 -1.72813 -2.13843 
C 1.53606 -2.95149 -2.23738 
C 0.33707 -2.99513 -1.26893 
C -0.83447 -2.05416 -1.60784 
C -0.41671 -0.61238 -1.4008 
N -0.45356 -0.19283 -0.0908 
C -0.12166 1.17807 0.31051 
C 0.2412 1.11226 1.80819 
N 1.48283 1.59978 2.12736 
C 2.00718 1.65126 3.49155 
C 1.39523 2.80796 4.27389 
O -0.50938 0.61725 2.65266 
C -1.33141 2.10391 0.08207 
C -0.96392 3.54413 -0.32996 
C -2.24013 4.32236 -0.6657 
C -0.17526 4.29268 0.74268 
O -0.07603 0.1409 -2.31249 
C -1.45424 -2.34196 -2.9683 
C -2.43762 -1.34527 -3.5635 
C -3.6078 -1.04643 -2.63132 
C -4.60933 -0.09402 -3.28573 
C -5.76609 0.2313 -2.33945 
C -6.76335 1.19147 -2.98963 
C -7.91774 1.52026 -2.04157 
C -8.91451 2.48158 -2.69103 
C -10.06779 2.81047 -1.74342 
C -11.06097 3.76604 -2.38529 
O -1.23787 -3.41003 -3.56199 
O -0.13854 -4.35358 -1.15489 
O 2.5051 -1.33966 -4.38232 
C 4.02933 1.02124 -4.09209 
C 4.60509 2.39411 -3.77149 
O 3.37084 0.18711 -0.00988 
C 6.09003 -1.8902 0.08287 
C 5.03837 -2.82678 0.68823 
C 7.46512 -2.20191 0.68038 
H 6.12221 2.08312 4.03236 
H 6.41019 0.58571 5.85374 
H 7.34898 -0.32615 4.6544 
H 5.44643 -1.72265 4.12153 
H 5.29813 -1.56389 5.87894 
H 3.24331 -0.84977 4.20554 
H 3.57424 0.12154 5.66653 
H 4.55664 -0.1604 1.99088 
H 6.55134 0.22269 -0.15148 
H 5.4964 -0.28938 -2.31563 
H 2.78198 0.93514 -2.33013 
H 2.53939 -1.37386 -1.2116 
H 2.22572 -3.76616 -1.98537 
H 1.23078 -3.13025 -3.27213 
H 0.70939 -2.74235 -0.26791 
H -1.64242 -2.27324 -0.89462 
H -0.76154 -0.83184 0.64007 
H 0.73788 1.50097 -0.28681 
H 2.10272 1.89588 1.37384 
H 1.75351 0.71154 3.98484 
H 0.31157 2.68792 4.37415 
H 1.82683 2.8671 5.2787 
H 1.57515 3.7679 3.77649 
H -1.96797 2.13095 0.9763 
H -1.96 1.68704 -0.71671 
H -0.35163 3.50236 -1.23987 
H -2.80125 3.82579 -1.46459 
H -2.89541 4.40653 0.20802 
H -2.00067 5.33444 -1.009 
H 0.83003 3.87916 0.8526 
H -0.05513 5.34787 0.47378 
H -0.67867 4.24733 1.71406 
H -2.81812 -1.77667 -4.49795 
H -1.90518 -0.43188 -3.84247 
H -3.24612 -0.5997 -1.6985 
H -4.10783 -1.98342 -2.35662 
H -5.00101 -0.5461 -4.20498 
H -4.09904 0.83365 -3.57255 
H -5.3724 0.67947 -1.41892 
H -6.27932 -0.69514 -2.05443 
H -7.15902 0.74316 -3.90909 
H -6.24882 2.11675 -3.27629 
H -7.52163 1.96795 -1.12195 
H -8.43272 0.59519 -1.75514 
H -9.31081 2.03409 -3.61069 
H -8.39949 3.40657 -2.9778 
H -9.67728 3.26195 -0.82398 
H -10.58873 1.88948 -1.45689 
H -11.87705 3.98765 -1.69045 
H -10.57828 4.71087 -2.65484 
H -11.49484 3.33079 -3.29119 
H -0.48364 -4.58422 -2.04753 
H 3.21215 1.14948 -4.8125 
H 4.79692 0.41636 -4.59077 
H 4.9214 2.89387 -4.69259 
H 3.85828 3.02725 -3.28184 
H 5.4774 2.31889 -3.11494 
H 6.14631 -2.11804 -0.98949 
H 4.0514 -2.65637 0.24844 
H 5.30392 -3.87279 0.4997 
H 4.95509 -2.69709 1.77202 
H 8.23367 -1.55162 0.24975 
H 7.47389 -2.06984 1.76728 
H 7.75064 -3.23815 0.46926 
*