!RI BP86 def2-SVP def2/J D3BJ TIGHTSCF TightOpt Grid5 FinalGrid6 freq
%maxcore 950
%pal nprocs 16
end
* xyz 0 1 
O 5.38778 -3.37837 1.08099 
C 4.99713 -2.31392 1.56564 
C 5.87626 -1.04654 1.57506 
C 6.97601 -1.16947 2.63222 
C 6.38349 -0.46192 3.84557 
C 5.61571 0.6961 3.22948 
N 5.18073 0.20035 1.92959 
C 4.38633 0.8628 1.01637 
O 4.05938 0.3143 -0.04302 
N 3.791 -2.20996 2.21886 
C 2.83776 -3.32588 2.28665 
C 2.08255 -3.39406 0.93469 
N 1.71618 -2.17082 0.42843 
C 1.02107 -1.96697 -0.84191 
C 1.1897 -0.46988 -1.15392 
N 1.57256 -0.16509 -2.43701 
C 1.93252 1.17676 -2.86798 
C 0.8071 1.9184 -3.60735 
C -0.35 2.36618 -2.69839 
C 0.07864 3.39544 -1.66519 
N 0.15066 2.91473 -0.3804 
C 0.42156 3.74545 0.79144 
C 1.90495 3.70368 1.22446 
N 2.60798 2.57172 0.87958 
C 3.97675 2.32008 1.32758 
C 4.97287 3.24378 0.62873 
O 2.39089 4.5692 1.95824 
C -0.44063 3.29366 1.98213 
C -1.96258 3.32531 1.73483 
C -2.47042 4.7222 1.37762 
C -2.69825 2.80714 2.9734 
O 0.28206 4.57918 -1.9337 
C -1.51406 2.89958 -3.52399 
C -2.79764 3.27203 -2.7956 
C -3.44758 2.11039 -2.04983 
C -3.88084 0.97752 -2.98322 
C -4.55524 -0.1521 -2.20267 
C -4.96833 -1.29748 -3.12796 
C -5.61864 -2.43809 -2.34359 
C -6.01766 -3.59065 -3.26632 
C -6.66541 -4.73154 -2.4822 
C -7.06279 -5.88002 -3.39574 
O -1.43815 3.04422 -4.75237 
O 1.38979 3.0221 -4.32524 
O 1.00701 0.39936 -0.29573 
C -0.4653 -2.32307 -0.73498 
C -1.17392 -2.28154 -2.08154 
O 1.72795 -4.45368 0.41651 
C 1.86187 -3.14504 3.47079 
C 0.84138 -4.28609 3.54567 
C 2.61728 -3.06603 4.80365 
H 6.29877 -0.94578 0.5682 
H 7.8707 -0.62902 2.29915 
H 7.26458 -2.2008 2.8562 
H 5.69535 -1.1353 4.37003 
H 7.14314 -0.12976 4.55846 
H 4.75626 0.99497 3.83582 
H 6.26254 1.56437 3.06554 
H 3.52916 -1.29914 2.5868 
H 3.40793 -4.25714 2.39132 
H 2.04908 -1.34116 0.91603 
H 1.51909 -2.58276 -1.59886 
H 1.69197 -0.92509 -3.10248 
H 2.7887 1.05812 -3.54305 
H 2.30103 1.76114 -2.01927 
H 0.4131 1.2377 -4.3741 
H -0.73181 1.47313 -2.19195 
H 0.1301 1.90229 -0.2377 
H 0.21015 4.78998 0.53747 
H 2.13787 1.84851 0.33118 
H 3.99706 2.51034 2.40342 
H 4.77098 4.29581 0.85247 
H 5.99933 3.02447 0.9412 
H 4.92471 3.12299 -0.45975 
H -0.20353 3.91908 2.85347 
H -0.1533 2.27002 2.26087 
H -2.204 2.65068 0.9054 
H -2.06101 5.06348 0.4222 
H -3.56147 4.72507 1.27975 
H -2.19816 5.45226 2.14718 
H -2.37552 1.79019 3.22055 
H -2.50982 3.44457 3.84401 
H -3.77945 2.77997 2.80084 
H -3.50139 3.67641 -3.53318 
H -2.57373 4.0874 -2.09966 
H -4.32598 2.49185 -1.5147 
H -2.76658 1.71674 -1.28776 
H -3.01022 0.578 -3.5164 
H -4.57315 1.36746 -3.73908 
H -5.43858 0.2366 -1.6816 
H -3.86779 -0.52874 -1.43552 
H -4.0878 -1.67463 -3.6621 
H -5.66929 -0.92422 -3.88443 
H -6.50536 -2.06349 -1.8179 
H -4.921 -2.80403 -1.58045 
H -5.13055 -3.96398 -3.79245 
H -6.71615 -3.22585 -4.02925 
H -7.55537 -4.3648 -1.95765 
H -5.96949 -5.10225 -1.72063 
H -7.5239 -6.68461 -2.81444 
H -7.78387 -5.54972 -4.15024 
H -6.18923 -6.29123 -3.91162 
H 0.65732 3.39396 -4.86572 
H -0.97364 -1.64084 -0.04193 
H -0.58002 -3.33008 -0.31718 
H -2.20921 -2.61808 -1.97002 
H -1.19461 -1.26757 -2.49209 
H -0.68166 -2.93858 -2.8054 
H 1.30635 -2.20624 3.34421 
H 0.18797 -4.29573 2.66786 
H 1.33906 -5.2594 3.61336 
H 0.19682 -4.17445 4.42441 
H 3.28529 -2.19959 4.83459 
H 1.91829 -2.96568 5.64109 
H 3.21875 -3.96598 4.97144 
*