!RI BP86 def2-SVP def2/J D3BJ TIGHTSCF TightOpt Grid5 FinalGrid6 freq
%maxcore 950
%pal nprocs 16
end
* xyz 0 1 
O 6.15545 -1.12924 -1.35068 
C 5.6565 -0.68198 -0.31724 
C 6.06709 0.67639 0.28057 
C 7.3346 0.49383 1.12564 
C 7.13951 1.4366 2.30558 
C 5.64403 1.36826 2.55522 
N 5.07921 1.24415 1.2173 
C 3.86745 1.7259 0.76547 
O 3.49947 1.50753 -0.39735 
N 4.80694 -1.42164 0.47504 
C 4.33271 -2.7593 0.12272 
C 2.95964 -2.73414 -0.59318 
N 2.38855 -1.48794 -0.73444 
C 1.1346 -1.24602 -1.45144 
C -0.05806 -1.9384 -0.74402 
N -0.00402 -1.86157 0.6352 
C -1.02226 -2.39476 1.51465 
C -1.80937 -1.31973 2.29092 
C -2.69524 -0.38314 1.44893 
C -1.84668 0.72226 0.84867 
N -1.63072 1.78751 1.69506 
C -0.8083 2.94154 1.3287 
C 0.53457 2.79439 2.06731 
N 1.61343 2.54659 1.25398 
C 2.99561 2.55086 1.73447 
C 3.50196 3.99109 1.78961 
O 0.63331 2.84734 3.29497 
C -1.51827 4.23964 1.73728 
C -0.75504 5.53282 1.38394 
C -1.52841 6.74654 1.90674 
C -0.51694 5.68177 -0.11926 
O -1.38135 0.7046 -0.28932 
C -3.59638 -1.15196 0.49571 
C -3.92335 -0.54419 -0.8582 
C -5.12638 -1.19846 -1.53123 
C -5.50458 -0.5623 -2.87513 
C -4.45081 -0.73923 -3.97532 
C -3.50835 0.46089 -4.1119 
C -2.40694 0.18263 -5.13713 
C -1.40431 1.33553 -5.20481 
C -0.30883 1.05788 -6.23356 
C 0.71333 2.18227 -6.27601 
O -4.10344 -2.2272 0.85278 
O -2.61612 -1.96825 3.29962 
O -1.0403 -2.38825 -1.33523 
C 1.20402 -1.58436 -2.94487 
C 2.2693 -0.77963 -3.67747 
O 2.40142 -3.76038 -0.98597 
C 4.30407 -3.71087 1.34097 
C 5.71383 -3.93929 1.8951 
C 3.37418 -3.23501 2.46165 
H 6.21295 1.39275 -0.53584 
H 8.24082 0.72659 0.55759 
H 7.43178 -0.53683 1.48925 
H 7.72794 1.14946 3.18118 
H 7.42645 2.45453 2.01526 
H 5.37702 0.4603 3.10745 
H 5.27104 2.23257 3.10461 
H 4.41661 -0.96131 1.29266 
H 5.02639 -3.17279 -0.62113 
H 2.94553 -0.67705 -0.4696 
H 0.95207 -0.1684 -1.34965 
H 0.83901 -1.46068 1.04135 
H -0.49843 -3.03368 2.2362 
H -1.68921 -3.06541 0.96414 
H -1.08384 -0.71745 2.85206 
H -3.4098 0.11037 2.12551 
H -1.93543 1.72498 2.66384 
H -0.64453 2.92775 0.24722 
H 1.47213 2.41315 0.25423 
H 3.01357 2.09412 2.72901 
H 2.9171 4.58393 2.50103 
H 4.55331 4.05096 2.08339 
H 3.41326 4.47372 0.80896 
H -1.70328 4.22558 2.82033 
H -2.50959 4.26392 1.26436 
H 0.22042 5.52334 1.88539 
H -1.6738 6.67834 2.99006 
H -0.98233 7.6737 1.70259 
H -2.51435 6.82317 1.43567 
H 0.15496 4.90487 -0.49601 
H -1.45698 5.62241 -0.678 
H -0.05052 6.64698 -0.3447 
H -3.04068 -0.67631 -1.48616 
H -4.1258 0.52333 -0.72225 
H -5.99242 -1.13187 -0.86035 
H -4.93515 -2.26912 -1.67713 
H -5.75113 0.4971 -2.73802 
H -6.42669 -1.05315 -3.2122 
H -4.97128 -0.86648 -4.93331 
H -3.87947 -1.66 -3.80765 
H -3.05003 0.70838 -3.15064 
H -4.0834 1.34218 -4.42169 
H -2.85656 0.02232 -6.12449 
H -1.87919 -0.7405 -4.86815 
H -0.95052 1.48407 -4.2171 
H -1.9265 2.26443 -5.46417 
H -0.75433 0.93779 -7.22792 
H 0.20069 0.11823 -5.99176 
H 1.48735 1.96295 -7.01806 
H 0.24106 3.13174 -6.54757 
H 1.20071 2.30625 -5.30366 
H -3.30047 -2.47165 2.80268 
H 0.23313 -1.37648 -3.41107 
H 1.39298 -2.6532 -3.0949 
H 2.25128 -1.01633 -4.74598 
H 2.09385 0.29509 -3.56573 
H 3.27184 -1.00665 -3.30198 
H 3.92729 -4.68523 1.00203 
H 6.38485 -4.30744 1.11193 
H 6.14147 -3.01834 2.30538 
H 5.69701 -4.68575 2.69651 
H 2.3523 -3.09615 2.09768 
H 3.3357 -3.97788 3.26606 
H 3.71255 -2.29185 2.90206 
*