!RI BP86 def2-SVP def2/J D3BJ TIGHTSCF TightOpt Grid5 FinalGrid6 freq
%maxcore 950
%pal nprocs 16
end
* xyz 0 1 
O 6.12491 -2.98891 0.7685 
C 5.47526 -1.98172 1.05774 
C 5.99919 -0.56357 0.76864 
C 6.84008 -0.08471 1.95951 
C 6.59181 1.41507 2.00822 
C 5.13686 1.53706 1.59022 
N 4.96194 0.47117 0.61256 
C 4.1593 0.49665 -0.51527 
O 4.1622 -0.46104 -1.29806 
N 4.3365 -2.03858 1.8295 
C 3.74051 -3.30334 2.27356 
C 2.58682 -3.63134 1.29919 
N 1.59027 -2.6884 1.25977 
C 0.4249 -2.73459 0.38003 
C 0.09547 -1.26838 0.04392 
N -0.77956 -1.07406 -0.9974 
C -1.22163 0.25736 -1.38125 
C -2.28955 0.80102 -0.41031 
C -2.39247 2.32954 -0.41072 
C -1.30731 3.08972 0.3542 
N -0.39017 2.38231 1.09401 
C 0.72263 3.03112 1.80511 
C 1.9407 3.08527 0.8566 
N 2.25037 1.89703 0.23169 
C 3.30083 1.76007 -0.77189 
C 2.66781 1.72087 -2.16094 
O 2.65044 4.08719 0.74912 
C 1.04771 2.25425 3.08962 
C 2.11203 2.91331 3.98968 
C 2.47775 1.96478 5.13492 
C 1.64316 4.25295 4.55867 
O -1.27961 4.32598 0.33555 
C -2.50406 2.85018 -1.83917 
C -3.91147 3.03126 -2.39112 
C -3.97667 3.22486 -3.90719 
C -3.43741 2.06637 -4.75678 
C -4.07463 0.71044 -4.44771 
C -3.52295 -0.3797 -5.37121 
C -4.02495 -1.78406 -5.02109 
C -3.43512 -2.31908 -3.71285 
C -3.85027 -3.76826 -3.46003 
C -3.26446 -4.29219 -2.15781 
O -1.50095 3.12002 -2.51075 
O -3.56022 0.20084 -0.7405 
O 0.55701 -0.31648 0.6851 
C -0.78577 -3.39041 1.05617 
C -0.66754 -4.90277 1.16744 
O 2.54587 -4.6684 0.63658 
C 3.27545 -3.21618 3.74491 
C 4.44054 -2.85461 4.67468 
C 2.65596 -4.53764 4.2114 
H 6.58761 -0.59029 -0.15622 
H 7.90056 -0.32496 1.83392 
H 6.50965 -0.54347 2.89944 
H 6.7855 1.84792 2.99341 
H 7.23627 1.91898 1.27775 
H 4.46647 1.32283 2.42872 
H 4.91456 2.52656 1.19093 
H 3.83145 -1.16923 1.98118 
H 4.48477 -4.10252 2.1708 
H 1.69865 -1.84304 1.81532 
H 0.69158 -3.25555 -0.54665 
H -1.17574 -1.87754 -1.47878 
H -1.61515 0.17075 -2.39865 
H -0.33648 0.90015 -1.39726 
H -2.08264 0.45005 0.60665 
H -3.32576 2.60852 0.099 
H -0.33792 1.36746 1.03397 
H 0.42768 4.05983 2.03273 
H 1.66738 1.07913 0.42278 
H 3.96186 2.63244 -0.73932 
H 2.07702 2.62433 -2.34728 
H 3.43578 1.64806 -2.93833 
H 1.99991 0.85914 -2.2706 
H 1.38773 1.24357 2.82759 
H 0.12328 2.11798 3.66725 
H 3.02252 3.09074 3.40608 
H 2.85934 1.01431 4.74642 
H 3.25758 2.40125 5.76799 
H 1.60889 1.74961 5.7662 
H 1.49718 4.99392 3.7673 
H 0.69969 4.14467 5.10419 
H 2.38745 4.66218 5.25048 
H -4.33231 3.91793 -1.90251 
H -4.5289 2.17801 -2.09847 
H -3.42674 4.13444 -4.17941 
H -5.02339 3.40239 -4.18416 
H -2.35108 1.99125 -4.63347 
H -3.60719 2.31173 -5.8128 
H -5.16303 0.77456 -4.56214 
H -3.87261 0.4449 -3.40846 
H -2.42626 -0.37081 -5.34919 
H -3.81929 -0.15056 -6.40235 
H -3.74527 -2.45996 -5.83875 
H -5.12017 -1.7862 -4.96745 
H -3.76711 -1.70317 -2.87072 
H -2.34092 -2.25492 -3.75049 
H -3.51268 -4.40312 -4.28737 
H -4.94322 -3.84092 -3.41883 
H -3.57054 -5.33014 -1.99435 
H -2.17033 -4.25971 -2.17798 
H -3.60983 -3.69793 -1.30578 
H -4.1586 0.39394 0.0108 
H -1.69739 -3.16721 0.48927 
H -0.93491 -2.96625 2.05724 
H -1.59329 -5.32211 1.57459 
H -0.49414 -5.3569 0.18677 
H 0.14721 -5.19345 1.83519 
H 2.51528 -2.4316 3.85003 
H 4.84251 -1.86347 4.44197 
H 4.11187 -2.8338 5.71942 
H 5.25528 -3.58187 4.59086 
H 1.75875 -4.78237 3.63582 
H 3.36437 -5.36652 4.10731 
H 2.3594 -4.47737 5.26418 
*