!RI BP86 def2-SVP def2/J D3BJ TIGHTSCF TightOpt Grid5 FinalGrid6 freq
%maxcore 950
%pal nprocs 16
end
* xyz 0 1 
O 4.32419 -1.56956 -2.1477 
C 4.13316 -0.69892 -1.29661 
C 3.78328 0.7569 -1.6667 
C 5.08292 1.51325 -1.98318 
C 4.90623 2.87778 -1.32783 
C 4.07061 2.56555 -0.10052 
N 3.16409 1.52763 -0.57372 
C 1.83315 1.35349 -0.24943 
O 1.17017 0.45424 -0.78392 
N 4.40186 -0.90987 0.03768 
C 4.96814 -2.16444 0.55093 
C 3.83713 -3.20415 0.73079 
N 2.63604 -2.68073 1.1438 
C 1.45706 -3.49208 1.43448 
C 0.25333 -2.58022 1.15713 
N -0.49044 -2.91963 0.05077 
C -1.5638 -2.07318 -0.44004 
C -2.85151 -2.21338 0.40115 
C -3.75697 -0.97087 0.37337 
C -3.47672 0.0347 1.48092 
N -2.18592 0.19284 1.91901 
C -1.80535 1.19031 2.93188 
C -0.4068 1.79368 2.63175 
N -0.01483 1.70136 1.31718 
C 1.18854 2.3243 0.76538 
C 0.79645 3.63482 0.08871 
O 0.25077 2.42628 3.45947 
C -1.86746 0.56926 4.33997 
C -2.69162 1.3971 5.34829 
C -2.84288 0.61922 6.65844 
C -2.07395 2.76611 5.63365 
O -4.3874 0.74438 1.92295 
C -3.84122 -0.37279 -1.02359 
C -3.864 1.1391 -1.19552 
C -3.3031 1.59491 -2.54474 
C -1.78755 1.38634 -2.62339 
C -1.19137 1.99097 -3.8951 
C 0.33198 1.8501 -3.90177 
C 0.95311 2.45937 -5.15871 
C 2.47833 2.34656 -5.12559 
C 3.11434 2.96252 -6.37039 
C 4.63059 2.85644 -6.32707 
O -3.96922 -1.12025 -2.00655 
O -3.58658 -3.37169 -0.05971 
O 0.01711 -1.55991 1.81011 
C 1.47109 -3.95796 2.89309 
C 0.3296 -4.91574 3.20406 
O 4.02615 -4.41913 0.64757 
C 5.71892 -1.91211 1.88014 
C 6.84772 -0.88891 1.6917 
C 6.31447 -3.19961 2.46064 
H 3.09542 0.74383 -2.51857 
H 5.25007 1.59813 -3.06184 
H 5.9594 1.00996 -1.55647 
H 5.85786 3.3565 -1.08165 
H 4.35098 3.54054 -2.00265 
H 4.68639 2.13023 0.69414 
H 3.56348 3.44366 0.29703 
H 4.18315 -0.1595 0.68736 
H 5.6534 -2.56111 -0.20854 
H 2.55057 -1.66789 1.1976 
H 1.45301 -4.35511 0.75935 
H -0.26858 -3.76939 -0.46161 
H -1.73144 -2.37401 -1.47931 
H -1.19106 -1.04465 -0.43231 
H -2.59851 -2.44626 1.44199 
H -4.7826 -1.31324 0.58185 
H -1.45384 -0.47631 1.67579 
H -2.51355 2.02277 2.84349 
H -0.58692 1.15034 0.68205 
H 1.89302 2.50962 1.5824 
H 0.3845 4.33837 0.82036 
H 1.63967 4.11865 -0.41026 
H 0.02766 3.4699 -0.67391 
H -0.85704 0.40949 4.73795 
H -2.32307 -0.42859 4.27853 
H -3.69636 1.55228 4.93487 
H -3.32907 -0.34654 6.48436 
H -1.86917 0.43024 7.12322 
H -3.45779 1.17619 7.37339 
H -2.04488 3.38774 4.73395 
H -2.6627 3.30783 6.38197 
H -1.05263 2.66862 6.01674 
H -3.28362 1.62591 -0.40795 
H -4.90655 1.46013 -1.09573 
H -3.52586 2.66199 -2.66631 
H -3.79594 1.0688 -3.37049 
H -1.5551 0.31583 -2.58849 
H -1.31426 1.84485 -1.74822 
H -1.45978 3.05227 -3.96034 
H -1.61609 1.49301 -4.77482 
H 0.60417 0.78974 -3.8338 
H 0.74661 2.34747 -3.01689 
H 0.6648 3.51457 -5.23759 
H 0.56315 1.94884 -6.04745 
H 2.76691 1.29103 -5.05058 
H 2.86322 2.85111 -4.23094 
H 2.82976 4.018 -6.4513 
H 2.7428 2.45579 -7.26856 
H 5.06778 3.30244 -7.22582 
H 5.03569 3.38088 -5.45563 
H 4.9494 1.81037 -6.27688 
H -3.85996 -3.16102 -0.98011 
H 1.41417 -3.09872 3.57301 
H 2.42034 -4.46302 3.11047 
H 0.39717 -5.25769 4.2417 
H -0.64389 -4.43319 3.07286 
H 0.36868 -5.79577 2.55424 
H 5.01664 -1.50485 2.61981 
H 6.45998 0.08446 1.3751 
H 7.38943 -0.73066 2.6306 
H 7.56762 -1.22915 0.93946 
H 5.53123 -3.90316 2.7586 
H 6.96666 -3.69737 1.73511 
H 6.90757 -2.98508 3.35643 
*