!RI BP86 def2-SVP def2/J D3BJ TIGHTSCF TightOpt Grid5 FinalGrid6 freq
%maxcore 950
%pal nprocs 16
end
* xyz 0 1 
O 6.95129 -2.22858 3.18861 
C 6.32537 -1.53044 2.39102 
C 6.79463 -0.13353 1.90496 
C 8.02111 0.36525 2.67151 
C 7.40627 1.13063 3.83655 
C 6.20759 1.81683 3.2003 
N 5.79724 0.93342 2.11403 
C 4.71883 1.13148 1.27389 
O 4.43192 0.2934 0.4088 
N 5.1939 -1.98489 1.75739 
C 4.63303 -3.33404 1.90708 
C 3.6729 -3.60036 0.72143 
N 2.86777 -2.53748 0.39493 
C 1.95704 -2.48815 -0.74716 
C 1.678 -0.987 -0.93303 
N 1.78518 -0.50679 -2.21403 
C 1.71136 0.90776 -2.54445 
C 0.34643 1.35226 -3.09412 
C -0.77697 1.37831 -2.04504 
C -0.54821 2.4136 -0.95563 
N -0.13442 1.89178 0.24558 
C 0.06804 2.68359 1.46183 
C 1.53825 3.13709 1.59435 
N 2.49305 2.22033 1.20991 
C 3.92344 2.45138 1.40567 
C 4.46549 3.43681 0.3726 
O 1.84622 4.19239 2.15576 
C -0.34865 1.83763 2.67666 
C -0.3181 2.56408 4.03617 
C -1.25963 3.76796 4.0775 
C -0.6874 1.58203 5.15207 
O -0.76773 3.61514 -1.10646 
C -2.13047 1.6018 -2.70601 
C -3.35368 1.40721 -1.81828 
C -4.63687 1.13295 -2.6023 
C -4.64154 -0.26326 -3.23431 
C -5.8748 -0.531 -4.10372 
C -7.18318 -0.55241 -3.30915 
C -8.38132 -1.04204 -4.12911 
C -8.74761 -0.10914 -5.28552 
C -10.01366 -0.58411 -5.99986 
C -10.38164 0.33659 -7.15251 
O -2.23515 1.95075 -3.88864 
O 0.51569 2.63117 -3.73437 
O 1.40168 -0.25539 0.02336 
C 0.6585 -3.24648 -0.46218 
C -0.25319 -3.31915 -1.67907 
O 3.57102 -4.69743 0.17208 
C 3.97617 -3.54858 3.29152 
C 2.81026 -2.60107 3.58958 
C 3.52864 -5.00117 3.47741 
H 7.01215 -0.22133 0.83347 
H 8.59228 1.06041 2.04331 
H 8.70078 -0.42462 3.00274 
H 7.07259 0.42936 4.6107 
H 8.10046 1.83998 4.2954 
H 5.38783 1.95912 3.91015 
H 6.48489 2.78472 2.7695 
H 4.81511 -1.37916 1.02593 
H 5.47547 -4.02899 1.79636 
H 2.90747 -1.70202 0.97694 
H 2.47714 -2.90455 -1.61649 
H 2.00329 -1.16001 -2.96283 
H 2.4792 1.08041 -3.30835 
H 2.00786 1.5143 -1.68276 
H 0.06881 0.65198 -3.89346 
H -0.84088 0.38041 -1.59322 
H 0.1833 0.92021 0.26801 
H -0.54949 3.58345 1.37766 
H 2.19549 1.34371 0.77554 
H 4.04155 2.87658 2.40516 
H 3.96855 4.40914 0.44958 
H 5.54101 3.59469 0.50486 
H 4.30755 3.06532 -0.6466 
H 0.30308 0.95474 2.73782 
H -1.36223 1.44962 2.50416 
H 0.70086 2.91573 4.23595 
H -0.93876 4.54996 3.38308 
H -2.28412 3.47985 3.81887 
H -1.27684 4.21312 5.07827 
H 0.00072 0.73005 5.16415 
H -0.63208 2.06774 6.13214 
H -1.70416 1.19581 5.02216 
H -3.47659 2.32365 -1.23054 
H -3.16343 0.5818 -1.12347 
H -4.77902 1.89434 -3.37825 
H -5.48066 1.22063 -1.90858 
H -4.5749 -1.0247 -2.44759 
H -3.75233 -0.38518 -3.86409 
H -5.73942 -1.5006 -4.59856 
H -5.92511 0.22562 -4.8949 
H -7.40331 0.44665 -2.91622 
H -7.06718 -1.2166 -2.4439 
H -9.24215 -1.1324 -3.4549 
H -8.1765 -2.04807 -4.51506 
H -7.9246 -0.06477 -6.00761 
H -8.90105 0.90746 -4.90383 
H -10.84912 -0.6237 -5.29125 
H -9.86526 -1.60002 -6.38412 
H -11.28925 -0.02127 -7.64858 
H -10.56776 1.35506 -6.79697 
H -9.57971 0.37332 -7.89676 
H -0.35443 2.82966 -4.14801 
H 0.11349 -2.77438 0.36501 
H 0.88764 -4.26873 -0.13853 
H -1.14056 -3.91738 -1.44882 
H -0.59231 -2.32492 -1.98542 
H 0.25966 -3.78588 -2.52598 
H 4.73974 -3.35344 4.05584 
H 3.10082 -1.55401 3.45785 
H 1.94541 -2.80458 2.95063 
H 2.48106 -2.72017 4.62794 
H 4.35751 -5.69168 3.28971 
H 3.18248 -5.1688 4.50311 
H 2.70623 -5.26142 2.8032 
*