!RI BP86 def2-SVP def2/J D3BJ TIGHTSCF TightOpt Grid5 FinalGrid6 freq
%maxcore 950
%pal nprocs 16
end
* xyz 0 1 
O 5.02887 1.95021 0.02311 
C 3.84535 2.0485 -0.30081 
C 2.8507 3.03493 0.3549 
C 3.56621 4.13392 1.14119 
C 3.73744 3.52025 2.52759 
C 2.45417 2.72669 2.71868 
N 2.03305 2.35772 1.37228 
C 0.95554 1.5695 1.0357 
O 0.71117 1.3053 -0.15032 
N 3.27175 1.23076 -1.2514 
C 3.99375 0.18017 -1.98017 
C 4.35576 -0.92944 -0.95457 
N 3.29599 -1.30441 -0.15175 
C 3.4085 -2.26423 0.94864 
C 2.29714 -3.33955 0.86737 
N 1.76597 -3.53204 -0.38945 
C 0.83205 -4.595 -0.70838 
C -0.03775 -4.33566 -1.9525 
C -0.88239 -3.05112 -1.98035 
C -1.75901 -2.93495 -0.74911 
N -1.14117 -2.46107 0.38049 
C -1.81887 -2.29319 1.67458 
C -1.09461 -1.17383 2.46633 
N -0.61287 -0.16182 1.66698 
C 0.04224 1.04604 2.16381 
C -1.00204 2.09659 2.52192 
O -1.05569 -1.1022 3.69389 
C -1.8616 -3.62363 2.44563 
C -3.22341 -3.91509 3.11105 
C -3.59983 -2.88994 4.17987 
C -3.21035 -5.31741 3.72597 
O -2.94426 -3.26981 -0.75674 
C -0.12979 -1.75872 -2.28179 
C -0.99142 -0.53931 -2.59146 
C -0.25459 0.47698 -3.46327 
C -1.08701 1.72564 -3.76584 
C -1.2649 2.6316 -2.54504 
C -2.05043 3.89648 -2.89482 
C -2.21542 4.79845 -1.67008 
C -2.99951 6.06584 -2.01297 
C -3.16312 6.96582 -0.78843 
C -3.94204 8.22749 -1.12442 
O 1.10249 -1.6696 -2.24571 
O 0.78329 -4.44789 -3.13308 
O 1.97046 -4.05191 1.8179 
C 3.3747 -1.50681 2.28326 
C 4.04485 -2.26753 3.41931 
O 5.44603 -1.49749 -0.8996 
C 5.19221 0.6883 -2.81543 
C 4.84928 1.96284 -3.59891 
C 5.65461 -0.37887 -3.81866 
H 2.20843 3.45585 -0.42749 
H 2.91882 5.01663 1.21481 
H 4.51816 4.44674 0.70241 
H 4.60167 2.84613 2.53915 
H 3.8856 4.27086 3.309 
H 2.60199 1.83573 3.335 
H 1.67386 3.34778 3.16757 
H 2.25648 1.27559 -1.35486 
H 3.25358 -0.25363 -2.66341 
H 2.39579 -0.85797 -0.32234 
H 4.3617 -2.79537 0.84389 
H 2.11041 -2.9467 -1.15504 
H 0.20792 -4.80003 0.16672 
H 1.44742 -5.48692 -0.87685 
H -0.73205 -5.1855 -2.00512 
H -1.56065 -3.16046 -2.84014 
H -0.13723 -2.29203 0.35879 
H -2.83207 -1.93423 1.45766 
H -0.74382 -0.2378 0.66017 
H 0.63244 0.77446 3.04315 
H -1.67763 1.72849 3.30129 
H -0.54149 3.02018 2.88259 
H -1.61406 2.35581 1.64987 
H -1.06538 -3.65947 3.20021 
H -1.6536 -4.45174 1.75524 
H -3.99923 -3.89966 2.33476 
H -3.71903 -1.89073 3.75065 
H -4.55298 -3.15448 4.65074 
H -2.84036 -2.83973 4.96715 
H -2.99296 -6.07466 2.96524 
H -2.45255 -5.3992 4.51267 
H -4.18373 -5.55903 4.166 
H -1.29395 -0.10187 -1.6363 
H -1.89399 -0.87079 -3.11656 
H 0.013 -0.00462 -4.41245 
H 0.69076 0.77292 -2.99516 
H -2.06618 1.43293 -4.16332 
H -0.58041 2.29292 -4.55652 
H -0.27971 2.91381 -2.15487 
H -1.78924 2.09402 -1.74746 
H -3.03753 3.62027 -3.28488 
H -1.5299 4.44579 -3.68863 
H -1.22745 5.0719 -1.27971 
H -2.73513 4.24835 -0.87603 
H -3.98759 5.79257 -2.40291 
H -2.47977 6.61618 -2.80672 
H -2.17796 7.24499 -0.39697 
H -3.68589 6.42156 0.0067 
H -4.04714 8.85626 -0.23475 
H -3.4289 8.8119 -1.8948 
H -4.94518 7.9839 -1.48871 
H 0.17273 -4.4285 -3.89821 
H 2.33983 -1.27532 2.56273 
H 3.89243 -0.54458 2.17781 
H 4.02815 -1.66547 4.33358 
H 3.5371 -3.21142 3.63371 
H 5.09042 -2.48602 3.1797 
H 6.03709 0.91291 -2.15302 
H 4.63822 2.80306 -2.93072 
H 5.68754 2.26436 -4.23661 
H 3.97509 1.80929 -4.24103 
H 5.9769 -1.29705 -3.32088 
H 4.85164 -0.63904 -4.51715 
H 6.50463 -0.01431 -4.40594 
*