!RI BP86 def2-SVP def2/J D3BJ TIGHTSCF TightOpt Grid5 FinalGrid6 freq
%maxcore 950
%pal nprocs 16
end
* xyz 0 1 
O 6.19457 -1.70799 1.97638 
C 5.29085 -0.87546 2.08979 
C 5.44232 0.36691 2.98766 
C 5.12677 -0.03565 4.43538 
C 4.41255 1.17588 5.01504 
C 3.62403 1.70819 3.83191 
N 4.49607 1.45039 2.69277 
C 4.62477 2.2166 1.54694 
O 5.50771 1.96446 0.71907 
N 4.02758 -1.09861 1.58451 
C 3.64754 -2.36475 0.95417 
C 2.48891 -2.13971 -0.05294 
N 2.5046 -3.01013 -1.12395 
C 1.49906 -3.0933 -2.1933 
C 1.53182 -1.91263 -3.19439 
N 2.5776 -1.035 -3.04179 
C 2.62358 0.27522 -3.6757 
C 2.05992 1.36965 -2.73722 
C 0.54127 1.23104 -2.50207 
C 0.11795 2.04542 -1.29752 
N 0.25346 1.37432 -0.10126 
C -0.04085 1.98785 1.19837 
C 1.12096 2.92272 1.61724 
N 2.32198 2.6581 1.00553 
C 3.57832 3.32673 1.31695 
C 3.97497 4.25502 0.17556 
O 1.01381 3.76526 2.50973 
C -0.2461 0.86988 2.23282 
C -0.71521 1.31811 3.63026 
C -2.05696 2.04897 3.58965 
C -0.81683 0.09862 4.55179 
O -0.30583 3.19841 -1.36446 
C -0.25938 1.62384 -3.73628 
C -1.7648 1.40789 -3.6933 
C -2.12247 -0.05599 -3.92294 
C -3.62865 -0.30147 -4.03968 
C -4.38488 -0.033 -2.73649 
C -5.86428 -0.40135 -2.86778 
C -6.62157 -0.13176 -1.56634 
C -8.10026 -0.50054 -1.69624 
C -8.85658 -0.23116 -0.39561 
C -10.32711 -0.59646 -0.52042 
O 0.27011 2.07652 -4.75954 
O 2.79039 1.29814 -1.48768 
O 0.68993 -1.76635 -4.083 
C 0.06126 -3.30906 -1.69186 
C -0.11154 -4.58283 -0.87966 
O 1.6329 -1.2637 0.08875 
C 3.31651 -3.42145 2.03817 
C 3.33935 -4.84835 1.48806 
C 1.99592 -3.14342 2.76268 
H 6.46032 0.75877 2.88229 
H 6.03282 -0.28771 4.99548 
H 4.46305 -0.90853 4.47702 
H 3.77679 0.92805 5.86935 
H 5.15154 1.91851 5.33944 
H 2.70312 1.13556 3.68265 
H 3.38065 2.76445 3.95156 
H 3.3196 -0.37523 1.69167 
H 4.5232 -2.70248 0.38459 
H 3.26264 -3.68552 -1.17282 
H 1.79386 -3.97034 -2.78482 
H 3.25412 -1.23552 -2.31008 
H 2.09652 0.24671 -4.63319 
H 3.68327 0.47187 -3.87118 
H 2.28049 2.35519 -3.16505 
H 0.29414 0.19032 -2.27479 
H 0.7191 0.46096 -0.1056 
H -0.93836 2.60219 1.07593 
H 2.33114 1.96414 0.25254 
H 3.4757 3.93117 2.22174 
H 3.21554 5.02962 0.02394 
H 4.92968 4.74702 0.38927 
H 4.08469 3.71199 -0.76946 
H 0.69495 0.31352 2.34437 
H -0.97282 0.14961 1.83155 
H 0.03155 1.99063 4.06686 
H -1.97818 2.99706 3.0495 
H -2.82626 1.44026 3.1027 
H -2.40266 2.28257 4.60251 
H 0.14773 -0.4153 4.62426 
H -1.11042 0.39857 5.56335 
H -1.55734 -0.6191 4.18258 
H -2.21429 2.03573 -4.47189 
H -2.1515 1.77071 -2.7372 
H -1.71665 -0.67495 -3.11432 
H -1.64268 -0.40076 -4.84739 
H -3.78255 -1.3471 -4.334 
H -4.04273 0.3177 -4.84465 
H -4.30228 1.02538 -2.46524 
H -3.93323 -0.61367 -1.92304 
H -5.95719 -1.46144 -3.13341 
H -6.31578 0.17742 -3.68274 
H -6.52941 0.92836 -1.30049 
H -6.16895 -0.70995 -0.75156 
H -8.19267 -1.56064 -1.96216 
H -8.553 0.07755 -2.51105 
H -8.77082 0.82828 -0.12738 
H -8.41044 -0.80997 0.42148 
H -10.84865 -0.396 0.42071 
H -10.81128 -0.01097 -1.30853 
H -10.44888 -1.65836 -0.75681 
H 3.74077 1.35369 -1.72477 
H -0.61879 -3.36452 -2.55133 
H -0.27658 -2.45185 -1.09842 
H -1.17079 -4.74299 -0.65393 
H 0.25319 -5.45558 -1.43006 
H 0.42092 -4.52237 0.0718 
H 4.10651 -3.37841 2.80066 
H 4.29152 -5.05801 0.9896 
H 3.22491 -5.57404 2.30074 
H 2.53389 -5.02729 0.77277 
H 1.98357 -2.13509 3.18924 
H 1.13543 -3.24204 2.09395 
H 1.85549 -3.85132 3.58683 
*