!RI BP86 def2-SVP def2/J D3BJ TIGHTSCF TightOpt Grid5 FinalGrid6 freq
%maxcore 950
%pal nprocs 16
end
* xyz 0 1 
O 5.74207 -2.67662 0.7977 
C 5.121 -1.87169 1.49504 
C 5.76869 -0.57639 2.03584 
C 6.65119 -0.9031 3.2428 
C 5.70556 -0.73947 4.42834 
C 4.83941 0.44339 4.02284 
N 4.81371 0.40986 2.56324 
C 4.14593 1.28161 1.72585 
O 4.26053 1.1877 0.49774 
N 3.85716 -2.14234 1.96995 
C 3.17659 -3.42456 1.74179 
C 2.53072 -3.48992 0.3365 
N 2.16651 -2.27364 -0.18452 
C 1.48281 -2.09754 -1.46552 
C 1.7287 -0.63168 -1.87166 
N 1.70021 -0.37394 -3.22107 
C 2.02424 0.89234 -3.88366 
C 1.61444 2.21248 -3.18722 
C 0.15053 2.22512 -2.71393 
C -0.05297 3.30462 -1.67314 
N 0.19784 2.88808 -0.38259 
C 0.05937 3.76817 0.78005 
C 1.01722 3.31236 1.91016 
N 2.20762 2.77399 1.47004 
C 3.29963 2.40247 2.3695 
C 4.18011 3.61846 2.64155 
O 0.81649 3.53406 3.10543 
C -1.40831 3.8181 1.24529 
C -1.92884 5.2474 1.5068 
C -1.19682 5.94669 2.65192 
C -3.43011 5.20681 1.80525 
O -0.4225 4.44732 -1.94116 
C -0.8184 2.38024 -3.87695 
C -2.30021 2.22648 -3.573 
C -2.66946 0.75651 -3.41217 
C -4.16484 0.57263 -3.15686 
C -4.50782 -0.90709 -2.97044 
C -5.99278 -1.10297 -2.66291 
C -6.40833 -2.57546 -2.58313 
C -5.66261 -3.42649 -1.55028 
C -5.80714 -2.91311 -0.11758 
C -5.12999 -3.84537 0.87556 
O -0.44341 2.57087 -5.0407 
O 2.55338 2.49257 -2.12597 
O 1.8939 0.25471 -1.02801 
C -0.01802 -2.38419 -1.32501 
C -0.71293 -2.60216 -2.66144 
O 2.24778 -4.55076 -0.22261 
C 2.16528 -3.70458 2.87848 
C 0.93501 -2.79148 2.84969 
C 1.72325 -5.17064 2.89435 
H 6.34615 -0.13279 1.21689 
H 7.46016 -0.16619 3.32006 
H 7.0994 -1.9006 3.20754 
H 5.0892 -1.63857 4.54458 
H 6.23217 -0.56847 5.37142 
H 3.82609 0.3756 4.42776 
H 5.29121 1.38717 4.34095 
H 3.39359 -1.41686 2.50983 
H 3.95624 -4.19729 1.75494 
H 2.43742 -1.43408 0.32676 
H 1.94957 -2.77245 -2.1918 
H 1.5827 -1.17581 -3.8362 
H 1.55884 0.83412 -4.87303 
H 3.11089 0.88043 -4.0266 
H 1.7734 3.02705 -3.90432 
H -0.09835 1.27219 -2.23959 
H 0.50985 1.9291 -0.22686 
H 0.39961 4.76208 0.46466 
H 2.36418 2.67608 0.46714 
H 2.85552 2.04639 3.30316 
H 3.60454 4.42223 3.11288 
H 5.01976 3.37414 3.29789 
H 4.59887 4.01563 1.70945 
H -1.55245 3.20419 2.14356 
H -2.051 3.36966 0.47522 
H -1.78683 5.84207 0.59531 
H -0.13506 6.08105 2.42508 
H -1.61789 6.94237 2.82922 
H -1.28057 5.37692 3.58336 
H -3.98069 4.75439 0.97362 
H -3.64012 4.62391 2.70854 
H -3.82519 6.21738 1.95405 
H -2.86343 2.67503 -4.39983 
H -2.55106 2.79806 -2.67392 
H -2.10798 0.3212 -2.57763 
H -2.37389 0.20163 -4.31131 
H -4.73737 0.98242 -3.99754 
H -4.45591 1.13359 -2.26045 
H -3.90177 -1.31156 -2.15201 
H -4.24191 -1.46252 -3.8779 
H -6.58967 -0.62378 -3.44915 
H -6.24909 -0.59058 -1.72841 
H -6.27189 -3.03462 -3.57032 
H -7.48369 -2.62011 -2.37004 
H -4.60134 -3.49518 -1.81606 
H -6.05753 -4.44892 -1.60575 
H -6.8685 -2.82168 0.14013 
H -5.36038 -1.9178 -0.02172 
H -5.24246 -3.46038 1.89392 
H -5.57277 -4.84585 0.84005 
H -4.05991 -3.93464 0.66223 
H 2.57815 1.67775 -1.57051 
H -0.51443 -1.56387 -0.79134 
H -0.17103 -3.28513 -0.71844 
H -1.76045 -2.87569 -2.49895 
H -0.6989 -1.69865 -3.276 
H -0.23667 -3.41124 -3.22406 
H 2.6818 -3.51915 3.83076 
H 1.21752 -1.73438 2.85068 
H 0.31135 -2.97865 1.96974 
H 0.31241 -2.9643 3.73456 
H 2.58933 -5.83992 2.92417 
H 1.1139 -5.37782 3.78087 
H 1.12343 -5.42467 2.01493 
*