!RI BP86 def2-SVP def2/J D3BJ TIGHTSCF TightOpt Grid5 FinalGrid6 freq
%maxcore 950
%pal nprocs 16
end
* xyz 0 1 
O 7.26747 -1.68089 2.97937 
C 6.6261 -0.7076 2.58073 
C 6.77209 0.72196 3.16737 
C 7.44836 0.70753 4.53781 
C 6.28019 0.45673 5.48669 
C 5.14722 1.26573 4.86997 
N 5.46101 1.33866 3.44667 
C 4.71121 1.96801 2.47683 
O 5.1029 1.99999 1.30214 
N 5.78879 -0.79468 1.49682 
C 5.39364 -2.04498 0.84021 
C 4.8551 -1.65287 -0.55923 
N 4.73473 -2.6778 -1.46916 
C 4.46495 -2.42189 -2.8887 
C 3.05676 -1.83249 -3.14106 
N 2.0969 -2.17983 -2.21877 
C 0.72698 -1.68575 -2.26993 
C 0.13823 -1.56044 -0.85194 
C -1.08453 -0.6408 -0.72449 
C -0.59492 0.79007 -0.81818 
N -0.21191 1.34058 0.38391 
C 0.34991 2.6913 0.50146 
C 1.11204 2.7173 1.84343 
N 2.47835 2.61328 1.73293 
C 3.38219 2.63696 2.88583 
C 3.64008 4.07434 3.32392 
O 0.54456 2.72188 2.93793 
C -0.77284 3.74355 0.47116 
C -0.3182 5.14217 0.00368 
C -1.53491 6.06567 -0.11123 
C 0.72183 5.77886 0.92437 
O -0.51022 1.40709 -1.87938 
C -2.20411 -0.97793 -1.6943 
C -3.33885 0.03126 -1.81998 
C -4.57723 -0.56554 -2.487 
C -5.71309 0.4553 -2.56499 
C -6.95219 -0.14112 -3.2346 
C -8.0883 0.88004 -3.31239 
C -9.32739 0.28376 -3.98228 
C -10.46361 1.30481 -4.05995 
C -11.70169 0.70894 -4.72952 
C -12.83363 1.72084 -4.80869 
O -2.23781 -2.06165 -2.29165 
O -0.15648 -2.87271 -0.32924 
O 2.78421 -1.19519 -4.16127 
C 4.60905 -3.70519 -3.7174 
C 6.05275 -4.18016 -3.81417 
O 4.55308 -0.4917 -0.85155 
C 4.3997 -2.83134 1.72924 
C 4.12108 -4.24581 1.21843 
C 3.08314 -2.08513 1.95306 
H 7.32917 1.32521 2.44194 
H 7.88183 1.69313 4.74868 
H 8.23901 -0.04027 4.64402 
H 6.02217 -0.60906 5.49047 
H 6.49587 0.75619 6.51608 
H 4.17221 0.79564 5.02495 
H 5.12399 2.28225 5.27305 
H 5.40826 0.07151 1.108 
H 6.30628 -2.63692 0.69732 
H 5.06263 -3.60093 -1.20147 
H 5.18483 -1.66424 -3.22345 
H 2.3616 -2.81897 -1.4715 
H 0.17508 -2.41166 -2.87454 
H 0.72873 -0.72409 -2.79041 
H 0.92123 -1.16284 -0.1973 
H -1.52698 -0.79272 0.27011 
H -0.32366 0.80215 1.24097 
H 1.03861 2.84102 -0.33765 
H 2.90624 2.5301 0.81216 
H 2.90568 2.07491 3.69358 
H 2.70856 4.56795 3.62048 
H 4.33206 4.12132 4.16942 
H 4.07887 4.66101 2.50841 
H -1.25385 3.82184 1.45482 
H -1.56031 3.40716 -0.21673 
H 0.12321 5.04867 -0.99681 
H -2.27548 5.65098 -0.80333 
H -2.01969 6.20659 0.86088 
H -1.24238 7.05066 -0.49036 
H 1.67278 5.24155 0.87849 
H 0.92706 6.8123 0.6242 
H 0.37957 5.79204 1.96447 
H -2.98242 0.88484 -2.40461 
H -3.59854 0.37717 -0.81311 
H -4.90977 -1.44744 -1.92537 
H -4.32285 -0.91122 -3.49669 
H -5.37831 1.33476 -3.12846 
H -5.97005 0.79689 -1.55491 
H -7.28673 -1.02067 -2.67116 
H -6.69538 -0.48259 -4.24477 
H -7.75365 1.75968 -3.87563 
H -8.34522 1.22136 -2.3022 
H -9.66196 -0.59596 -3.41913 
H -9.07046 -0.05743 -4.99252 
H -10.12912 2.18475 -4.62287 
H -10.72066 1.64614 -3.04976 
H -12.04269 -0.16878 -4.16826 
H -11.45113 0.36989 -5.74143 
H -13.7086 1.27383 -5.29088 
H -13.13051 2.05633 -3.80987 
H -12.53556 2.59811 -5.39168 
H -0.84377 -3.24339 -0.92621 
H 4.23454 -3.53573 -4.73458 
H 3.99372 -4.50534 -3.28705 
H 6.11303 -5.07343 -4.44407 
H 6.68902 -3.40882 -4.25969 
H 6.45923 -4.43615 -2.83117 
H 4.86451 -2.95053 2.71745 
H 5.05319 -4.77264 0.99035 
H 3.5917 -4.827 1.98186 
H 3.49143 -4.24307 0.32386 
H 3.25019 -1.09706 2.39329 
H 2.54457 -1.95364 1.01346 
H 2.43319 -2.64338 2.63548 
*