!RI BP86 def2-SVP def2/J D3BJ TIGHTSCF TightOpt Grid5 FinalGrid6 freq
%maxcore 950
%pal nprocs 16
end
* xyz 0 1 
O 3.8185 -0.2954 0.30881 
C 4.34001 -0.91766 1.23646 
C 4.31283 -0.45256 2.71189 
C 3.51008 -1.41458 3.59108 
C 2.08522 -0.88675 3.46382 
C 2.2751 0.62213 3.43042 
N 3.60316 0.8225 2.86418 
C 4.20414 2.02831 2.56859 
O 5.33406 2.06179 2.06535 
N 4.9788 -2.12321 1.02727 
C 5.14601 -2.70274 -0.31169 
C 3.83591 -3.32136 -0.86965 
N 2.82463 -3.46872 0.05261 
C 1.45978 -3.88006 -0.28219 
C 0.49804 -2.66189 -0.31359 
N 1.10778 -1.43755 -0.4489 
C 0.39491 -0.17516 -0.54751 
C -0.20808 0.06019 -1.94444 
C -1.00645 1.37501 -2.0199 
C -0.10465 2.58142 -1.84516 
N 0.04662 3.00085 -0.54501 
C 0.98326 4.05634 -0.15144 
C 1.40886 3.73209 1.29253 
N 2.76584 3.67043 1.49526 
C 3.37662 3.31728 2.7756 
C 4.27411 4.45608 3.24686 
O 0.58954 3.50995 2.18709 
C 0.30789 5.4316 -0.22848 
C 1.22436 6.62228 0.11808 
C 2.40424 6.75079 -0.84629 
C 0.40976 7.91893 0.11024 
O 0.45821 3.14706 -2.78266 
C -1.78786 1.46146 -3.32282 
C -2.84395 2.55799 -3.4005 
C -3.85438 2.38246 -4.53287 
C -5.10208 1.56286 -4.17517 
C -4.86506 0.06843 -3.94025 
C -4.70235 -0.29016 -2.46127 
C -4.4343 -1.78553 -2.28001 
C -4.28358 -2.14908 -0.80199 
C -4.05426 -3.6494 -0.6201 
C -3.89096 -4.01512 0.8466 
O -1.55418 0.70869 -4.27633 
O 0.85147 0.02543 -2.92263 
O -0.72935 -2.77211 -0.31164 
C 0.94249 -4.92979 0.70788 
C 1.73972 -6.2258 0.66023 
O 3.72194 -3.69365 -2.03829 
C 6.29929 -3.72974 -0.38188 
C 7.64801 -3.07011 -0.07951 
C 6.09125 -4.94263 0.53064 
H 5.34911 -0.35225 3.054 
H 3.83853 -1.32408 4.63393 
H 3.58275 -2.46652 3.30257 
H 1.64235 -1.2322 2.52259 
H 1.43588 -1.20955 4.28222 
H 1.51611 1.11817 2.82209 
H 2.26745 1.04715 4.43962 
H 5.39457 -2.60004 1.82221 
H 5.37675 -1.86766 -0.9872 
H 3.00587 -3.14314 0.9976 
H 1.45401 -4.29373 -1.29776 
H 2.1256 -1.40286 -0.48165 
H 1.13953 0.58945 -0.3081 
H -0.38843 -0.16143 0.21793 
H -0.87141 -0.78075 -2.18375 
H -1.75415 1.3633 -1.21606 
H -0.49054 2.56178 0.20027 
H 1.84455 4.00394 -0.82459 
H 3.38986 3.78078 0.69979 
H 2.60213 3.15984 3.52995 
H 3.68863 5.36715 3.41148 
H 4.77449 4.19386 4.18496 
H 5.04925 4.69246 2.50897 
H -0.55632 5.44317 0.45011 
H -0.10212 5.57532 -1.23724 
H 1.62142 6.48931 1.13173 
H 3.08125 5.89536 -0.76687 
H 2.06245 6.82091 -1.88445 
H 2.99171 7.64807 -0.62317 
H -0.41775 7.86305 0.82541 
H 1.03478 8.77316 0.39156 
H -0.01094 8.11865 -0.88122 
H -2.29923 3.49609 -3.56003 
H -3.36138 2.63468 -2.43864 
H -3.38143 1.96484 -5.42914 
H -4.20624 3.38356 -4.81529 
H -5.79134 1.65606 -5.02501 
H -5.61679 2.01442 -3.31863 
H -4.00919 -0.28479 -4.52521 
H -5.73962 -0.47665 -4.31921 
H -5.61577 -0.01514 -1.91953 
H -3.88564 0.2799 -2.01215 
H -3.5209 -2.06315 -2.82023 
H -5.25824 -2.36164 -2.71834 
H -5.18521 -1.84793 -0.25483 
H -3.44321 -1.59115 -0.37118 
H -3.15948 -3.96039 -1.17136 
H -4.90038 -4.208 -1.03703 
H -3.72109 -5.09118 0.95207 
H -3.03836 -3.49178 1.29067 
H -4.78817 -3.75517 1.41735 
H 0.39861 0.09713 -3.79256 
H -0.10709 -5.16258 0.49045 
H 0.96839 -4.52861 1.72893 
H 1.29874 -6.9637 1.33798 
H 1.73972 -6.64958 -0.34899 
H 2.77723 -6.06789 0.96921 
H 6.34942 -4.10937 -1.41145 
H 7.8225 -2.21851 -0.74547 
H 7.70156 -2.71162 0.95371 
H 8.46728 -3.7817 -0.22867 
H 5.15823 -5.4622 0.29318 
H 6.90673 -5.6626 0.39991 
H 6.06675 -4.66216 1.58807 
*