!RI BP86 def2-SVP def2/J D3BJ TIGHTSCF TightOpt Grid5 FinalGrid6 freq
%maxcore 950
%pal nprocs 16
end
* xyz 0 1 
O 7.72504 0.85531 -0.52564 
C 7.13679 0.5637 0.51757 
C 7.01496 1.55654 1.69653 
C 8.12383 1.32278 2.72599 
C 7.47662 0.42242 3.77509 
C 6.0352 0.90323 3.80886 
N 5.77145 1.4006 2.4647 
C 4.57845 1.88646 1.96996 
O 4.53462 2.39825 0.84159 
N 6.69139 -0.71201 0.77445 
C 6.83492 -1.84674 -0.14468 
C 5.64461 -2.82492 0.04235 
N 4.46252 -2.21785 0.40032 
C 3.22926 -2.95257 0.67992 
C 2.06397 -2.15542 0.07004 
N 1.04226 -2.92729 -0.43827 
C -0.16563 -2.34668 -1.00908 
C -1.17881 -1.97227 0.09099 
C -2.118 -0.81285 -0.27274 
C -1.30205 0.46417 -0.25711 
N -1.13959 1.01997 0.99014 
C -0.20286 2.1064 1.26162 
C 0.89666 1.52806 2.18198 
N 2.15148 2.03955 1.96622 
C 3.3021 1.78402 2.83938 
C 3.29212 2.81739 3.96085 
O 0.6554 0.72371 3.08572 
C -0.87011 3.28513 1.98832 
C -1.60764 4.28201 1.07093 
C -2.02068 5.51406 1.88351 
C -2.84259 3.68384 0.3989 
O -0.81315 0.96012 -1.27188 
C -2.882 -0.98273 -1.57967 
C -3.95359 0.06671 -1.86059 
C -4.76793 -0.24666 -3.11431 
C -5.84154 0.81443 -3.35891 
C -6.65636 0.50235 -4.6151 
C -7.73007 1.56392 -4.8596 
C -8.54463 1.25228 -6.11618 
C -9.61865 2.31357 -6.36047 
C -10.43212 2.00246 -7.61653 
C -11.50124 3.05502 -7.86273 
O -2.67643 -1.91385 -2.36501 
O -1.92606 -3.14719 0.46928 
O 2.03065 -0.9225 0.06128 
C 3.05562 -3.10797 2.19527 
C 1.91735 -4.04213 2.57901 
O 5.70274 -4.02853 -0.21293 
C 8.18411 -2.59709 0.00344 
C 9.37449 -1.77915 -0.50222 
C 8.45323 -3.06418 1.43774 
H 7.06209 2.56938 1.27959 
H 8.39743 2.27738 3.19221 
H 9.0308 0.87905 2.30416 
H 7.52091 -0.62487 3.46167 
H 7.96381 0.49649 4.75167 
H 5.32396 0.12049 4.0843 
H 5.94355 1.73982 4.50624 
H 6.22444 -0.88097 1.6613 
H 6.74877 -1.4586 -1.16779 
H 4.43155 -1.20092 0.44964 
H 3.28784 -3.93701 0.20225 
H 1.09549 -3.93999 -0.36213 
H -0.57227 -3.10841 -1.68142 
H 0.1392 -1.47694 -1.59793 
H -0.6196 -1.69125 0.99334 
H -2.89006 -0.74834 0.50645 
H -1.51688 0.5382 1.80322 
H 0.26211 2.44351 0.32872 
H 2.31893 2.63102 1.15427 
H 3.21373 0.77047 3.24318 
H 2.31815 2.8445 4.46227 
H 4.04104 2.60709 4.72547 
H 3.49089 3.82231 3.57094 
H -0.09334 3.84423 2.5282 
H -1.55886 2.91011 2.75756 
H -0.91679 4.61759 0.2872 
H -1.1469 5.99262 2.33842 
H -2.509 6.25737 1.24427 
H -2.71716 5.24566 2.68526 
H -2.56507 2.93969 -0.35017 
H -3.50574 3.2099 1.13012 
H -3.41569 4.45754 -0.12388 
H -3.46488 1.03959 -1.97397 
H -4.61909 0.10967 -0.99116 
H -5.23859 -1.23241 -3.01199 
H -4.10066 -0.30339 -3.98334 
H -5.36834 1.79845 -3.46299 
H -6.51016 0.86732 -2.49107 
H -7.12959 -0.48162 -4.51095 
H -5.98772 0.44944 -5.48292 
H -7.25684 2.54795 -4.9633 
H -8.39889 1.61655 -3.99191 
H -9.0176 0.2681 -6.01266 
H -7.87578 1.2 -6.98389 
H -9.14593 3.29795 -6.4634 
H -10.2878 2.36571 -5.49294 
H -10.91007 1.02092 -7.51721 
H -9.76836 1.9536 -8.48759 
H -12.07055 2.81303 -8.76564 
H -12.2017 3.10661 -7.02307 
H -11.05355 4.04472 -7.99844 
H -2.4253 -2.90791 1.27687 
H 2.8866 -2.12836 2.66053 
H 3.98412 -3.50158 2.62816 
H 1.90138 -4.18738 3.664 
H 0.94624 -3.63205 2.28716 
H 2.03704 -5.02284 2.10809 
H 8.13894 -3.49551 -0.62681 
H 9.19468 -1.41083 -1.51732 
H 9.58697 -0.9246 0.14727 
H 10.27791 -2.39849 -0.53104 
H 7.6235 -3.66057 1.82916 
H 9.35266 -3.68878 1.47316 
H 8.61464 -2.21841 2.11246 
*