!RI BP86 def2-SVP def2/J D3BJ TIGHTSCF TightOpt Grid5 FinalGrid6 freq
%maxcore 950
%pal nprocs 16
end
* xyz 0 1 
O 7.11622 1.12873 1.41069 
C 5.95094 0.97977 1.78776 
C 5.0639 2.18286 2.16581 
C 5.25406 2.53886 3.64447 
C 4.08406 1.8498 4.34078 
C 2.95547 1.98989 3.33402 
N 3.617 1.96919 2.03588 
C 3.00094 2.02929 0.7999 
O 3.67054 1.95259 -0.23662 
N 5.43122 -0.26216 2.07645 
C 6.20623 -1.49545 1.90329 
C 5.94252 -2.14986 0.52817 
N 4.6367 -2.10528 0.11413 
C 4.11401 -2.70725 -1.11035 
C 2.8517 -1.9 -1.45473 
N 2.43093 -1.94967 -2.7614 
C 1.18567 -1.32124 -3.17854 
C -0.01505 -2.26763 -2.97063 
C -1.33998 -1.56082 -2.65334 
C -1.61967 -1.24582 -1.18859 
N -0.59921 -1.36883 -0.28218 
C -0.7416 -1.03815 1.14578 
C -0.31624 0.43852 1.31347 
N 0.90515 0.75998 0.7634 
C 1.45753 2.10714 0.77523 
C 0.98722 2.86932 -0.46129 
O -0.97581 1.25549 1.95811 
C 0.1291 -1.98951 1.98577 
C -0.4267 -2.29483 3.39171 
C -0.52829 -1.05696 4.28037 
C 0.45541 -3.34449 4.07509 
O -2.74147 -0.86892 -0.83318 
C -1.57309 -0.38868 -3.5903 
C -1.31189 1.03063 -3.1081 
C -2.4012 2.00497 -3.55151 
C -3.72738 1.76119 -2.8267 
C -4.79056 2.77269 -3.25845 
C -6.11465 2.53077 -2.53188 
C -7.17836 3.54206 -2.96233 
C -8.5023 3.30023 -2.23553 
C -9.56519 4.311 -2.66542 
C -10.88292 4.0741 -1.94501 
O -1.86777 -0.60097 -4.77722 
O -0.15816 -3.10403 -4.14314 
O 2.20502 -1.2922 -0.59313 
C 3.69764 -4.17388 -0.92397 
C 4.85813 -5.12927 -0.69759 
O 6.80636 -2.78126 -0.08235 
C 5.99296 -2.50209 3.05879 
C 4.53059 -2.88714 3.30535 
C 6.608 -1.96849 4.35749 
H 5.35931 3.01552 1.51596 
H 5.16293 3.62427 3.77555 
H 6.21958 2.22744 4.05469 
H 4.3146 0.79183 4.50838 
H 3.84136 2.29946 5.30759 
H 2.21691 1.18698 3.40417 
H 2.45056 2.95553 3.4454 
H 4.45021 -0.30888 2.33607 
H 7.26905 -1.22044 1.88307 
H 3.98129 -1.55468 0.66437 
H 4.85478 -2.60001 -1.91009 
H 2.95573 -2.4973 -3.43931 
H 1.3054 -1.05519 -4.2338 
H 1.0753 -0.40362 -2.59319 
H 0.20777 -2.97922 -2.16727 
H -2.14199 -2.27346 -2.9052 
H 0.35368 -1.54486 -0.59408 
H -1.79886 -1.12677 1.41803 
H 1.42492 0.03391 0.26376 
H 1.09256 2.64083 1.65717 
H -0.103 2.97511 -0.46372 
H 1.42823 3.87119 -0.49254 
H 1.26925 2.34968 -1.38425 
H 1.15228 -1.60263 2.0771 
H 0.21643 -2.94743 1.45412 
H -1.43133 -2.72343 3.28475 
H -1.30304 -0.37576 3.91933 
H -0.80184 -1.33349 5.30453 
H 0.42215 -0.51487 4.32024 
H 0.51617 -4.25662 3.47205 
H 1.47288 -2.96932 4.22749 
H 0.04631 -3.62016 5.05291 
H -0.35044 1.33926 -3.53435 
H -1.20155 1.07043 -2.02246 
H -2.55442 1.93684 -4.63517 
H -2.06002 3.02611 -3.34157 
H -3.57159 1.83436 -1.74349 
H -4.08597 0.74627 -3.03493 
H -4.94722 2.70111 -4.34163 
H -4.43708 3.78961 -3.04897 
H -5.95746 2.6015 -1.44869 
H -6.46827 1.51392 -2.74156 
H -7.33562 3.47119 -4.04549 
H -6.82465 4.5589 -2.75271 
H -8.34509 3.37072 -1.1523 
H -8.85618 2.2834 -2.44506 
H -9.72928 4.24174 -3.74708 
H -9.21803 5.32915 -2.45434 
H -11.62834 4.80786 -2.26731 
H -11.27418 3.07486 -2.16127 
H -10.76002 4.16821 -0.86132 
H -0.49713 -2.52087 -4.8572 
H 3.15215 -4.51115 -1.81447 
H 2.99653 -4.26205 -0.0838 
H 4.49843 -6.16341 -0.70761 
H 5.61342 -5.02725 -1.48281 
H 5.33151 -4.95942 0.27346 
H 6.52924 -3.42567 2.80153 
H 4.081 -3.34802 2.42176 
H 4.46161 -3.61978 4.11738 
H 3.92188 -2.02413 3.59244 
H 7.66843 -1.73297 4.21868 
H 6.10021 -1.06143 4.70105 
H 6.53662 -2.7156 5.15529 
*