!RI BP86 def2-SVP def2/J D3BJ TIGHTSCF TightOpt Grid5 FinalGrid6 freq
%maxcore 950
%pal nprocs 16
end
* xyz 0 1 
O 3.73019 -3.11982 2.63904 
C 3.59699 -1.90308 2.49997 
C 4.4449 -0.8839 3.28847 
C 3.91827 -0.8056 4.72538 
C 4.16392 0.64021 5.12692 
C 3.8977 1.40317 3.84043 
N 4.36485 0.50349 2.79311 
C 4.88463 0.85818 1.56001 
O 5.33929 -0.0162 0.81092 
N 2.61168 -1.35348 1.70986 
C 1.6935 -2.13839 0.8765 
C 2.19968 -2.15648 -0.60013 
N 3.53803 -1.88791 -0.77035 
C 4.32623 -2.04083 -2.00339 
C 4.05869 -0.91827 -3.03199 
N 2.73544 -0.70933 -3.34613 
C 2.26585 0.35376 -4.22323 
C 1.93254 1.65542 -3.46047 
C 0.82149 1.4585 -2.4147 
C 0.79432 2.65712 -1.4904 
N 0.84184 2.33744 -0.15279 
C 1.00594 3.33449 0.90691 
C 2.4813 3.39059 1.387 
N 3.34595 2.54625 0.72851 
C 4.74213 2.33127 1.10646 
C 5.64797 2.62953 -0.08279 
O 2.85316 4.12501 2.30398 
C 0.10237 3.01192 2.10685 
C -1.39576 2.85671 1.77627 
C -2.17007 2.49354 3.04601 
C -1.98945 4.11849 1.15015 
O 0.75548 3.81824 -1.89569 
C -0.54265 1.25655 -3.05605 
C -1.68533 0.93421 -2.10157 
C -2.92498 0.41186 -2.82235 
C -4.02509 0.0413 -1.82684 
C -5.27031 -0.48385 -2.54249 
C -6.36861 -0.85615 -1.54517 
C -7.61443 -1.38193 -2.26 
C -8.71249 -1.75459 -1.26253 
C -9.95754 -2.27974 -1.97685 
C -11.05153 -2.65151 -0.98868 
O -0.72369 1.34655 -4.27531 
O 3.14636 2.12647 -2.8312 
O 4.97666 -0.33516 -3.61367 
C 4.17532 -3.43608 -2.62584 
C 5.27589 -3.74664 -3.63209 
O 1.49116 -2.47757 -1.55623 
C 0.23829 -1.61513 0.99151 
C -0.13349 -1.23025 2.43123 
C -0.78363 -2.64991 0.50029 
H 5.49486 -1.19598 3.2508 
H 4.42588 -1.51333 5.38817 
H 2.84363 -1.02381 4.76993 
H 3.52609 0.96871 5.95196 
H 5.21058 0.76623 5.42934 
H 2.82423 1.55699 3.69116 
H 4.41317 2.36438 3.82833 
H 2.58607 -0.34015 1.63603 
H 1.73437 -3.17941 1.22023 
H 4.03849 -1.50729 0.03167 
H 5.36516 -1.91113 -1.67312 
H 2.04638 -1.31853 -2.90087 
H 1.39466 -0.0333 -4.75876 
H 3.05252 0.55895 -4.95788 
H 1.64373 2.41574 -4.19732 
H 1.042 0.56296 -1.82291 
H 0.87134 1.36223 0.12734 
H 0.777 4.3286 0.50795 
H 2.97586 1.9976 -0.04359 
H 5.02178 2.99935 1.92438 
H 5.5425 3.67305 -0.39843 
H 6.69766 2.4519 0.17368 
H 5.40353 1.998 -0.94451 
H 0.22627 3.79367 2.86828 
H 0.4543 2.08221 2.57405 
H -1.52326 2.02872 1.06824 
H -1.77991 1.57158 3.48982 
H -2.09889 3.28812 3.79657 
H -3.23002 2.33237 2.82243 
H -1.53824 4.33106 0.17642 
H -3.06649 4.0012 0.98833 
H -1.83762 4.99056 1.79501 
H -1.93187 1.84405 -1.54425 
H -1.33186 0.17601 -1.39475 
H -2.6594 -0.46554 -3.42511 
H -3.29703 1.17348 -3.51872 
H -4.28889 0.92095 -1.22702 
H -3.65096 -0.72199 -1.13349 
H -5.00577 -1.36287 -3.14275 
H -5.64573 0.27957 -3.23472 
H -6.633 0.02289 -0.94485 
H -5.99274 -1.61934 -0.85286 
H -7.34996 -2.26083 -2.86047 
H -7.99045 -0.61863 -2.95208 
H -8.97683 -0.87586 -0.66168 
H -8.33658 -2.51795 -0.57039 
H -9.69957 -3.16081 -2.5759 
H -10.33992 -1.51866 -2.66696 
H -11.93226 -3.02438 -1.52085 
H -10.71173 -3.43475 -0.30356 
H -11.35553 -1.78345 -0.39506 
H 3.0276 3.09272 -2.71002 
H 3.2071 -3.54103 -3.12811 
H 4.20656 -4.19578 -1.83496 
H 5.15918 -4.7659 -4.01403 
H 5.24042 -3.06356 -4.48612 
H 6.26476 -3.67059 -3.16893 
H 0.13345 -0.71799 0.37084 
H 0.47302 -0.39491 2.79425 
H -1.18033 -0.9127 2.49094 
H 0.00321 -2.07556 3.1143 
H -0.65564 -2.88683 -0.55816 
H -0.70515 -3.58301 1.06863 
H -1.80493 -2.27043 0.61793 
*