!RI BP86 def2-SVP def2/J D3BJ TIGHTSCF TightOpt Grid5 FinalGrid6 freq
%maxcore 950
%pal nprocs 16
end
* xyz 0 1 
O 7.15732 -1.19683 1.36011 
C 6.10869 -0.80438 1.87759 
C 6.00814 0.55207 2.60195 
C 6.70133 0.46466 3.96435 
C 5.56328 0.11578 4.9172 
C 4.39437 0.91521 4.36519 
N 4.64915 1.00662 2.93141 
C 3.84612 1.61924 1.98915 
O 4.11544 1.54511 0.78354 
N 4.98688 -1.59417 1.9173 
C 4.93306 -2.96738 1.40048 
C 4.57488 -3.00616 -0.11094 
N 5.26136 -2.10272 -0.8907 
C 5.15374 -1.9313 -2.34575 
C 3.80796 -1.27874 -2.73363 
N 2.68813 -1.96464 -2.3255 
C 1.33069 -1.47071 -2.48611 
C 1.00025 -0.39062 -1.43592 
C -0.49772 -0.07802 -1.38394 
C -0.78462 0.96348 -0.32174 
N -0.2695 2.21809 -0.55173 
C -0.42966 3.34447 0.36988 
C 0.39058 3.12528 1.66627 
N 1.64618 2.59374 1.4533 
C 2.66131 2.47422 2.49875 
C 3.19722 3.85685 2.87738 
O 0.03951 3.53927 2.77234 
C -1.89035 3.72307 0.66618 
C -2.75402 3.99584 -0.58115 
C -4.21021 4.22229 -0.16752 
C -2.25168 5.19339 -1.3879 
O -1.42419 0.69098 0.69613 
C -1.0199 0.35727 -2.73846 
C -2.3477 -0.21474 -3.19355 
C -3.50823 0.58661 -2.6196 
C -4.85742 0.02653 -3.06741 
C -6.01252 0.84547 -2.48783 
C -7.36754 0.29079 -2.93238 
C -8.51941 1.11086 -2.34715 
C -9.89723 0.66995 -2.84929 
C -10.29061 -0.73469 -2.39048 
C -11.70928 -1.08007 -2.81732 
O -0.41836 1.18689 -3.4324 
O 1.41778 -0.87925 -0.13911 
O 3.73664 -0.24167 -3.39498 
C 5.414 -3.20419 -3.16008 
C 6.81372 -3.76155 -2.94215 
O 3.81377 -3.83876 -0.60748 
C 4.01099 -3.8791 2.24519 
C 4.58289 -4.09193 3.65018 
C 2.5687 -3.37084 2.34528 
H 6.48763 1.29543 1.95412 
H 7.11238 1.4454 4.23404 
H 7.51263 -0.26831 4.00537 
H 5.3471 -0.95677 4.86477 
H 5.78775 0.36542 5.9579 
H 3.42926 0.43527 4.55026 
H 4.37851 1.92417 4.78653 
H 4.13041 -1.15566 2.24461 
H 5.95178 -3.376 1.45331 
H 5.94803 -1.52015 -0.4172 
H 5.92653 -1.19346 -2.59889 
H 2.82592 -2.85015 -1.83225 
H 0.67812 -2.34114 -2.35819 
H 1.2125 -1.08678 -3.50414 
H 1.59379 0.50977 -1.63395 
H -1.03139 -0.98817 -1.0801 
H 0.18114 2.40348 -1.44619 
H 0.05884 4.19238 -0.12673 
H 1.87829 2.25427 0.52119 
H 2.18879 1.99812 3.3627 
H 2.41227 4.48691 3.30701 
H 4.00997 3.79585 3.60652 
H 3.59054 4.37726 1.99602 
H -1.90163 4.61415 1.30868 
H -2.36187 2.93142 1.26139 
H -2.7322 3.11552 -1.23093 
H -4.60103 3.35257 0.37134 
H -4.30765 5.09801 0.48306 
H -4.84451 4.37964 -1.04646 
H -1.25868 5.0038 -1.80629 
H -2.92171 5.40311 -2.22878 
H -2.19573 6.09455 -0.76809 
H -2.40324 -1.26846 -2.89965 
H -2.36763 -0.19254 -4.28947 
H -3.42083 1.63184 -2.94006 
H -3.4577 0.58659 -1.52441 
H -4.94763 -1.01772 -2.74455 
H -4.9141 0.0336 -4.16265 
H -5.91908 1.89001 -2.80944 
H -5.95453 0.83876 -1.39246 
H -7.44879 -0.7538 -2.61195 
H -7.42711 0.30174 -4.02733 
H -8.38009 2.16554 -2.61555 
H -8.49295 1.05821 -1.25191 
H -9.9241 0.72348 -3.94449 
H -10.6405 1.38788 -2.48053 
H -10.21673 -0.80508 -1.29919 
H -9.60764 -1.47914 -2.8131 
H -11.97038 -2.08912 -2.48323 
H -12.43128 -0.38137 -2.38273 
H -11.81016 -1.0459 -3.90682 
H 2.34862 -1.1597 -0.26979 
H 5.29058 -2.97665 -4.22653 
H 4.67939 -3.98399 -2.93347 
H 6.97509 -4.63436 -3.5828 
H 7.57593 -3.01563 -3.18882 
H 6.96132 -4.076 -1.90443 
H 3.97545 -4.86515 1.76282 
H 5.60493 -4.48181 3.60079 
H 4.60016 -3.16045 4.22395 
H 3.97795 -4.81559 4.20714 
H 2.12908 -3.21358 1.35644 
H 1.9436 -4.10367 2.86757 
H 2.50282 -2.43081 2.90216 
*