!RI BP86 def2-SVP def2/J D3BJ TIGHTSCF TightOpt Grid5 FinalGrid6 freq
%maxcore 950
%pal nprocs 16
end
* xyz 0 1 
O 4.65792 -0.73839 2.16216 
C 5.42416 -0.91198 1.21282 
C 5.95763 0.23123 0.31951 
C 7.46249 0.43779 0.48851 
C 7.54741 1.45323 1.62292 
C 6.35639 2.36557 1.36972 
N 5.37602 1.51932 0.70321 
C 4.06727 1.82715 0.41119 
O 3.3289 1.00313 -0.15018 
N 5.84401 -2.16833 0.82964 
C 5.41545 -3.40609 1.49699 
C 3.90305 -3.64316 1.20233 
N 3.52166 -3.24481 -0.06538 
C 2.23553 -3.55909 -0.68622 
C 1.04131 -2.8462 -0.00719 
N 1.32873 -1.59959 0.51305 
C 0.30136 -0.74164 1.08624 
C -0.4657 0.02011 -0.01493 
C -1.749 0.68426 0.51505 
C -1.50308 1.64732 1.66671 
N -0.41465 2.4635 1.51537 
C 0.08433 3.45039 2.48127 
C 1.44416 3.98088 1.96603 
N 2.17816 3.04323 1.2747 
C 3.54345 3.22753 0.79785 
C 3.59998 4.13839 -0.4206 
O 1.89956 5.082 2.27435 
C 0.30109 2.85678 3.88961 
C -0.58276 3.51996 4.96589 
C -0.17159 4.97102 5.2264 
C -0.50574 2.72218 6.26983 
O -2.23395 1.68538 2.65693 
C -2.54396 1.3347 -0.60754 
C -3.07315 0.41065 -1.69673 
C -4.1987 1.05243 -2.50608 
C -4.74643 0.08801 -3.55878 
C -5.87134 0.73146 -4.37119 
C -6.41921 -0.23335 -5.42407 
C -7.54408 0.41011 -6.23663 
C -8.09184 -0.55457 -7.28969 
C -9.2159 0.08849 -8.10158 
C -9.76321 -0.86733 -9.14962 
O -2.75874 2.55258 -0.64283 
O 0.40455 0.99782 -0.62525 
O -0.11781 -3.26408 -0.06358 
C 1.98194 -5.06467 -0.84919 
C 3.06272 -5.76241 -1.66408 
O 3.13537 -4.25127 1.94651 
C 5.78883 -3.49292 2.99749 
C 5.72984 -4.94279 3.50253 
C 7.19828 -2.95321 3.28043 
H 5.69268 -0.00093 -0.71873 
H 7.88052 0.87916 -0.42458 
H 8.02134 -0.47489 0.71343 
H 7.43014 0.94238 2.58636 
H 8.49623 1.99644 1.63972 
H 5.95414 2.77737 2.29885 
H 6.61116 3.18601 0.69083 
H 6.50043 -2.25185 0.058 
H 5.94608 -4.20347 0.95879 
H 4.21894 -2.76464 -0.62779 
H 2.29384 -3.11324 -1.68857 
H 2.30112 -1.29039 0.5178 
H 0.82261 -0.0544 1.75937 
H -0.38061 -1.36726 1.67197 
H -0.72889 -0.6822 -0.81346 
H -2.39461 -0.10406 0.92743 
H -0.01318 2.48564 0.57394 
H -0.63296 4.27698 2.47259 
H 1.77186 2.11885 1.14076 
H 4.1157 3.66486 1.61826 
H 3.22413 5.13923 -0.18515 
H 4.62717 4.23747 -0.78682 
H 2.99174 3.74133 -1.24145 
H 1.35097 2.95775 4.19685 
H 0.1052 1.77722 3.88172 
H -1.62641 3.51117 4.62872 
H -0.28724 5.58897 4.33118 
H -0.79388 5.41412 6.01144 
H 0.87328 5.03527 5.54885 
H -0.8409 1.69108 6.11518 
H 0.51808 2.6918 6.65802 
H -1.14675 3.16823 7.03766 
H -3.44327 -0.50377 -1.21996 
H -2.24095 0.14916 -2.35843 
H -3.82966 1.96154 -2.99697 
H -5.00641 1.36334 -1.83176 
H -5.12054 -0.81844 -3.06747 
H -3.93666 -0.21949 -4.23162 
H -5.49739 1.63785 -4.86273 
H -6.68088 1.03909 -3.69813 
H -6.79323 -1.13971 -4.93254 
H -5.6096 -0.54103 -6.09702 
H -7.17008 1.31657 -6.72803 
H -8.35374 0.71767 -5.56368 
H -8.46574 -1.4612 -6.79847 
H -7.28224 -0.86232 -7.96268 
H -8.84621 0.99316 -8.59818 
H -10.02976 0.39429 -7.4339 
H -10.56566 -0.38717 -9.71832 
H -8.98055 -1.16758 -9.85363 
H -10.17064 -1.76983 -8.6829 
H 1.2758 0.55318 -0.7433 
H 1.01941 -5.22022 -1.35221 
H 1.89575 -5.55286 0.12803 
H 2.8054 -6.81715 -1.80433 
H 3.16486 -5.30468 -2.65312 
H 4.03384 -5.72021 -1.16152 
H 5.0746 -2.90501 3.58711 
H 4.72892 -5.37091 3.41059 
H 6.42288 -5.5835 2.94626 
H 6.00377 -4.9942 4.56219 
H 7.26936 -1.88037 3.07967 
H 7.46583 -3.09715 4.3331 
H 7.94838 -3.46631 2.66886 
*