!RI BP86 def2-SVP def2/J D3BJ TIGHTSCF TightOpt Grid5 FinalGrid6 freq
%maxcore 950
%pal nprocs 16
end
* xyz 0 1 
O 3.34288 -0.09341 0.79234 
C 3.07684 -0.95625 1.63282 
C 2.40169 -0.65044 2.99321 
C 0.97189 -1.18124 3.06014 
C 0.15293 -0.03763 2.47067 
C 0.86571 1.20944 2.9722 
N 2.25249 0.79706 3.14668 
C 3.33798 1.60068 3.43491 
O 4.43578 1.10381 3.70994 
N 3.37937 -2.28404 1.43226 
C 4.18605 -2.74342 0.29169 
C 3.31263 -2.84614 -0.98353 
N 1.98018 -3.10547 -0.76876 
C 1.03168 -3.48135 -1.82518 
C 0.40651 -2.24815 -2.53534 
N 1.28498 -1.22636 -2.82377 
C 0.91958 -0.02706 -3.56123 
C 1.31976 1.26698 -2.82143 
C 0.70986 1.39552 -1.41537 
C 0.99558 2.73986 -0.75342 
N 2.29245 3.18502 -0.84244 
C 2.7524 4.4831 -0.33995 
C 2.70381 4.52476 1.20903 
N 3.11658 3.35193 1.80121 
C 3.14504 3.11958 3.24665 
C 4.27744 3.89415 3.91358 
O 2.46079 5.53857 1.86349 
C 2.03155 5.68531 -0.9703 
C 2.01407 5.70324 -2.51263 
C 3.41998 5.72216 -3.11318 
C 1.22374 6.91829 -3.00574 
O 0.14613 3.36307 -0.11354 
C -0.78981 1.12567 -1.42709 
C -1.67261 2.02294 -2.29413 
C -3.13165 2.09225 -1.83045 
C -4.09655 1.25685 -2.68239 
C -3.90625 -0.25872 -2.60514 
C -4.33373 -0.85039 -1.25969 
C -4.09177 -2.36076 -1.21894 
C -4.50211 -2.95584 0.12862 
C -4.2528 -4.46328 0.16861 
C -4.65694 -5.05949 1.50735 
O -1.26038 0.19398 -0.76248 
O 2.76655 1.2893 -2.71621 
O -0.75106 -2.22797 -2.95849 
C -0.03998 -4.4076 -1.23071 
C -0.7207 -5.28527 -2.2731 
O 3.78403 -2.8125 -2.12238 
C 4.86028 -4.09836 0.6241 
C 5.76309 -3.97729 1.86075 
C 5.70103 -4.63726 -0.53906 
H 3.03303 -1.0578 3.79073 
H 0.68084 -1.33383 4.10656 
H 0.8149 -2.11901 2.51985 
H 0.20505 -0.0827 1.37878 
H -0.89999 -0.06842 2.76349 
H 0.77785 2.04654 2.27759 
H 0.48773 1.52127 3.95171 
H 3.08976 -2.9658 2.12851 
H 4.94774 -1.97871 0.09261 
H 1.63464 -2.99781 0.18101 
H 1.60174 -4.02202 -2.59146 
H 2.26586 -1.35379 -2.57819 
H -0.14725 -0.03848 -3.79801 
H 1.46497 -0.08951 -4.50977 
H 1.04028 2.13135 -3.43563 
H 1.17533 0.64971 -0.75773 
H 2.94374 2.61582 -1.38962 
H 3.81872 4.53261 -0.59346 
H 3.29178 2.55915 1.18221 
H 2.18898 3.43747 3.67481 
H 4.12652 4.97465 3.82694 
H 4.3414 3.64748 4.97879 
H 5.24578 3.66045 3.45646 
H 2.5044 6.60778 -0.6064 
H 0.99719 5.7249 -0.60545 
H 1.49779 4.80734 -2.87798 
H 3.96307 4.79993 -2.88562 
H 3.37488 5.80922 -4.20421 
H 4.00356 6.56643 -2.73099 
H 0.19979 6.89986 -2.61764 
H 1.69219 7.85493 -2.68468 
H 1.16453 6.92645 -4.09931 
H -1.60097 1.69363 -3.33478 
H -1.26161 3.03727 -2.25064 
H -3.45825 3.13666 -1.92245 
H -3.2318 1.8402 -0.76951 
H -3.9947 1.56668 -3.73024 
H -5.12511 1.50354 -2.39083 
H -2.86709 -0.51991 -2.82724 
H -4.51375 -0.71939 -3.39459 
H -5.39829 -0.64498 -1.09351 
H -3.7869 -0.37529 -0.4392 
H -3.03045 -2.56673 -1.39901 
H -4.65682 -2.84605 -2.02392 
H -5.56432 -2.7533 0.31193 
H -3.93656 -2.469 0.93256 
H -3.19165 -4.67045 -0.01023 
H -4.81865 -4.95603 -0.63055 
H -4.46983 -6.13785 1.51391 
H -4.08468 -4.61048 2.32544 
H -5.72176 -4.89813 1.70331 
H 3.1095 1.16335 -3.62599 
H -0.7958 -3.81997 -0.69561 
H 0.41931 -5.07317 -0.48829 
H -1.44008 -5.95276 -1.78766 
H -1.26472 -4.69468 -3.01459 
H 0.01181 -5.90594 -2.79898 
H 4.08243 -4.84108 0.84662 
H 5.19297 -3.69546 2.75136 
H 6.25137 -4.93302 2.08059 
H 6.54536 -3.22624 1.70602 
H 5.07342 -4.91433 -1.39119 
H 6.43417 -3.89649 -0.87554 
H 6.24567 -5.54014 -0.24142 
*