!RI BP86 def2-SVP def2/J D3BJ TIGHTSCF TightOpt Grid5 FinalGrid6 freq
%maxcore 950
%pal nprocs 16
end
* xyz 0 1 
O 5.81777 -1.85511 -1.43233 
C 5.75164 -1.19858 -0.391 
C 5.8514 0.34187 -0.38522 
C 7.32506 0.76168 -0.37581 
C 7.62235 0.99807 1.10108 
C 6.33043 1.61397 1.60774 
N 5.28035 1.00329 0.8029 
C 3.91401 1.14552 0.94589 
O 3.15843 0.51239 0.19114 
N 5.74683 -1.79543 0.84736 
C 5.71703 -3.25017 1.0587 
C 4.42934 -3.5483 1.86831 
N 3.30748 -2.92855 1.35833 
C 1.9669 -3.12124 1.90766 
C 0.92015 -2.75871 0.83758 
N 1.12172 -1.54917 0.2077 
C 0.15421 -0.9553 -0.70324 
C -1.16928 -0.63105 0.02215 
C -1.78425 0.72321 -0.33737 
C -0.93607 1.81587 0.28486 
N -1.07986 1.94561 1.64744 
C -0.38698 2.96195 2.44669 
C 0.99563 2.4329 2.91274 
N 1.87682 2.15885 1.88821 
C 3.32778 2.01705 2.09723 
C 3.90702 3.42911 2.17919 
O 1.33638 2.35009 4.09368 
C -1.28241 3.38481 3.62252 
C -0.83986 4.67173 4.35092 
C -0.92136 5.90774 3.45296 
C -1.7101 4.88351 5.5934 
O -0.15888 2.52305 -0.3563 
C -2.00863 0.93899 -1.82732 
C -2.82077 2.17359 -2.20711 
C -3.44323 2.08901 -3.60032 
C -4.58804 1.07348 -3.66635 
C -5.20952 1.02905 -5.06367 
C -6.35433 0.01688 -5.13127 
C -6.97547 -0.02799 -6.52833 
C -8.12014 -1.04027 -6.59606 
C -8.74063 -1.0852 -7.99219 
C -9.87904 -2.09037 -8.06378 
O -1.55422 0.18281 -2.69301 
O -2.13092 -1.68701 -0.17654 
O -0.105 -3.42085 0.65607 
C 1.77866 -2.2593 3.16558 
C 0.46195 -2.53418 3.87826 
O 4.35997 -4.33787 2.80897 
C 7.00633 -3.77039 1.73452 
C 7.07703 -5.30428 1.70124 
C 8.27174 -3.22749 1.05697 
H 5.33372 0.70478 -1.28094 
H 7.44277 1.70437 -0.92445 
H 8.00018 0.02357 -0.81949 
H 7.81433 0.04953 1.61186 
H 8.48731 1.64816 1.25991 
H 6.15545 1.44271 2.67295 
H 6.33934 2.68729 1.39723 
H 5.66826 -1.191 1.6616 
H 5.59412 -3.74179 0.08545 
H 3.43117 -2.33296 0.54286 
H 1.8538 -4.18453 2.14983 
H 1.94049 -0.98433 0.44205 
H -0.00473 -1.66796 -1.5196 
H 0.63839 -0.05777 -1.09829 
H -0.98334 -0.63472 1.10399 
H -2.78435 0.765 0.1167 
H -1.66351 1.28026 2.14813 
H -0.19887 3.817 1.78894 
H 1.53534 2.20052 0.92727 
H 3.48969 1.48733 3.04248 
H 3.23222 4.11902 2.69903 
H 4.84215 3.44608 2.7437 
H 4.09464 3.84124 1.18176 
H -1.3334 2.55985 4.34622 
H -2.30926 3.52714 3.2578 
H 0.19686 4.56575 4.68937 
H -0.20569 5.85124 2.62777 
H -1.92427 6.02572 3.02902 
H -0.68656 6.8152 4.02001 
H -1.63265 4.02822 6.27303 
H -1.39216 5.77505 6.14441 
H -2.76438 5.00944 5.32415 
H -2.14493 3.03458 -2.16723 
H -3.6085 2.32615 -1.46128 
H -2.67803 1.83672 -4.34415 
H -3.83132 3.07979 -3.86697 
H -5.35736 1.34082 -2.93169 
H -4.22185 0.07524 -3.40012 
H -4.44044 0.76331 -5.79912 
H -5.58332 2.02476 -5.3316 
H -7.12332 0.28241 -4.39565 
H -5.98058 -0.97887 -4.86333 
H -6.20639 -0.2934 -7.2639 
H -7.34936 0.96772 -6.79624 
H -8.88934 -0.77499 -5.86052 
H -7.74651 -2.03603 -6.32787 
H -7.97662 -1.35408 -8.73091 
H -9.11952 -0.09297 -8.26356 
H -10.30803 -2.10609 -9.07057 
H -9.5265 -3.09978 -7.82892 
H -10.67573 -1.83167 -7.35902 
H -1.64932 -2.51316 0.06699 
H 1.83286 -1.19264 2.91398 
H 2.59701 -2.44988 3.87058 
H 0.4042 -1.94627 4.79993 
H -0.3956 -2.26112 3.25604 
H 0.37382 -3.59203 4.14506 
H 7.01999 -3.44791 2.78368 
H 6.24684 -5.76857 2.23867 
H 7.06124 -5.67754 0.6713 
H 8.00093 -5.65871 2.1717 
H 8.34939 -2.14288 1.16327 
H 9.17164 -3.65766 1.51021 
H 8.28374 -3.46824 -0.01159 
*