!RI BP86 def2-SVP def2/J D3BJ TIGHTSCF TightOpt Grid5 FinalGrid6 freq
%maxcore 950
%pal nprocs 16
end
* xyz 0 1 
O 2.23649 -3.74392 2.02229 
C 2.35011 -2.53723 2.24079 
C 3.52371 -1.94713 3.04999 
C 3.30615 -2.24771 4.536 
C 3.96278 -1.07366 5.24446 
C 3.65067 0.09942 4.33118 
N 3.65496 -0.47667 2.99186 
C 3.96637 0.18141 1.81682 
O 4.0714 -0.44585 0.75541 
N 1.40207 -1.62107 1.84679 
C 0.28058 -1.93186 0.95834 
C 0.63302 -1.69816 -0.54097 
N 1.9738 -1.56312 -0.80741 
C 2.58187 -1.49569 -2.13259 
C 2.30028 -0.10815 -2.74873 
N 1.24318 -0.02721 -3.62335 
C 0.89924 1.17372 -4.35797 
C -0.40475 1.83816 -3.8785 
C -0.37272 2.31255 -2.41497 
C 0.78103 3.28002 -2.19854 
N 1.32557 3.2702 -0.93332 
C 2.40025 4.18614 -0.53747 
C 3.06678 3.66744 0.75947 
N 3.43617 2.33714 0.73398 
C 4.13497 1.71294 1.86037 
C 5.6245 2.04033 1.83261 
O 3.35114 4.39064 1.71644 
C 1.85221 5.61572 -0.35565 
C 2.92611 6.72339 -0.40711 
C 3.52702 6.87825 -1.80618 
C 2.31427 8.05571 0.0355 
O 1.18383 4.04319 -3.0806 
C -1.69583 2.95283 -1.99792 
C -3.00208 2.24945 -2.33064 
C -3.14058 0.92724 -1.58566 
C -4.50991 0.28719 -1.8303 
C -4.72988 -0.98463 -1.00557 
C -3.88585 -2.16624 -1.48623 
C -4.06076 -3.38278 -0.57543 
C -3.14364 -4.52992 -1.00242 
C -3.29501 -5.73648 -0.07701 
C -2.37659 -6.8746 -0.49236 
O -1.73289 4.00379 -1.34052 
O -0.74154 2.91567 -4.7735 
O 2.91903 0.8969 -2.38373 
C 2.28127 -2.72751 -2.99564 
C 3.14498 -2.78597 -4.24866 
O -0.20842 -1.71917 -1.44061 
C -1.00751 -1.18203 1.36423 
C -1.55087 -1.7052 2.69684 
C -0.82347 0.33684 1.43676 
H 4.45859 -2.37992 2.67558 
H 3.74118 -3.20802 4.8298 
H 2.23754 -2.27855 4.78406 
H 3.59159 -0.9263 6.26225 
H 5.04682 -1.23291 5.29372 
H 2.64722 0.49702 4.51683 
H 4.3859 0.9006 4.43675 
H 1.58731 -0.64741 2.06723 
H 0.09292 -3.01177 1.02684 
H 2.60227 -1.41256 -0.01871 
H 3.66361 -1.50306 -1.93886 
H 0.65571 -0.84715 -3.75345 
H 0.77594 0.87141 -5.40502 
H 1.73892 1.87616 -4.35326 
H -1.20056 1.09402 -3.99553 
H -0.21852 1.44703 -1.7607 
H 0.94728 2.64137 -0.23002 
H 3.15289 4.14961 -1.33159 
H 3.26136 1.78724 -0.10926 
H 3.68683 2.12006 2.77069 
H 5.79596 3.11921 1.90402 
H 6.14868 1.55687 2.66372 
H 6.08762 1.69337 0.90173 
H 1.31728 5.6707 0.60234 
H 1.09859 5.83468 -1.12315 
H 3.73822 6.48428 0.2885 
H 4.07537 5.98225 -2.11012 
H 2.74972 7.07148 -2.55329 
H 4.23462 7.71414 -1.83316 
H 1.91763 7.98231 1.05368 
H 3.06691 8.85133 0.02912 
H 1.49594 8.35762 -0.62712 
H -3.08819 2.11684 -3.41281 
H -3.81929 2.9225 -2.0418 
H -3.0046 1.10137 -0.51228 
H -2.34372 0.24538 -1.89849 
H -4.6359 0.06742 -2.8972 
H -5.29166 1.00783 -1.55974 
H -5.78973 -1.26115 -1.06674 
H -4.51866 -0.77556 0.0503 
H -2.82885 -1.88971 -1.51059 
H -4.17077 -2.42816 -2.51236 
H -5.10601 -3.71367 -0.59934 
H -3.83353 -3.10256 0.46041 
H -2.10071 -4.18982 -0.99115 
H -3.37687 -4.82318 -2.03319 
H -4.33319 -6.08804 -0.08975 
H -3.06289 -5.44611 0.95434 
H -2.50052 -7.72727 0.18254 
H -2.60316 -7.21036 -1.50934 
H -1.32735 -6.56413 -0.45838 
H -0.03488 3.59111 -4.65377 
H 1.22712 -2.77875 -3.28567 
H 2.47404 -3.63178 -2.40393 
H 2.93408 -3.70329 -4.80764 
H 2.95046 -1.9379 -4.91162 
H 4.20912 -2.78525 -3.99188 
H -1.77418 -1.37917 0.60617 
H -1.73162 -2.78414 2.6458 
H -0.8541 -1.51475 3.51993 
H -2.50196 -1.2207 2.94268 
H -0.41473 0.73015 0.50243 
H -1.78593 0.82924 1.61267 
H -0.15603 0.63175 2.25275 
*