!RI BP86 def2-SVP def2/J D3BJ TIGHTSCF TightOpt Grid5 FinalGrid6 freq
%maxcore 950
%pal nprocs 16
end
* xyz 0 1 
O 6.74901 -0.57534 3.78001 
C 6.00057 -0.11677 2.91717 
C 5.56767 1.37123 2.84229 
C 6.02559 2.17149 4.06292 
C 4.85529 2.02214 5.02679 
C 3.64484 2.09435 4.10913 
N 4.10407 1.55867 2.83209 
C 3.33139 1.39127 1.69883 
O 3.81576 0.88901 0.67624 
N 5.56293 -0.87105 1.85554 
C 5.94925 -2.26328 1.59584 
C 5.62455 -2.59375 0.11808 
N 4.42015 -2.10271 -0.32225 
C 3.9268 -2.18718 -1.69521 
C 2.80999 -1.13009 -1.76497 
N 2.77657 -0.36526 -2.90552 
C 1.84204 0.73104 -3.10487 
C 0.56261 0.3295 -3.86513 
C -0.36298 -0.58836 -3.05567 
C -0.90729 0.10149 -1.81812 
N -0.67301 -0.56232 -0.63933 
C -1.22962 -0.13989 0.6471 
C -0.39915 0.99069 1.29409 
N 0.96173 0.95492 1.07842 
C 1.87077 1.89781 1.72931 
C 1.82965 3.2594 1.03819 
O -0.90487 1.79683 2.08104 
C -1.30004 -1.36084 1.57919 
C -2.0267 -1.13786 2.92061 
C -3.48449 -0.71617 2.73371 
C -1.96409 -2.41903 3.75788 
O -1.51448 1.17234 -1.8535 
C -1.42786 -1.16568 -3.9687 
C -2.7512 -0.44821 -4.14522 
C -3.80352 -1.03068 -3.20597 
C -5.15302 -0.31479 -3.29077 
C -5.11754 1.09941 -2.70592 
C -6.50872 1.73653 -2.71043 
C -6.47435 3.14937 -2.12509 
C -7.86464 3.78688 -2.12792 
C -7.83002 5.19844 -1.5427 
C -9.21029 5.83587 -1.5436 
O -1.21234 -2.21676 -4.59293 
O -0.11279 1.51879 -4.31641 
O 1.9956 -0.98522 -0.84723 
C 3.36907 -3.57945 -2.00415 
C 2.98977 -3.74887 -3.46855 
O 6.33814 -3.31294 -0.58159 
C 5.30843 -3.24934 2.6014 
C 3.77679 -3.25504 2.58885 
C 5.83721 -4.67244 2.40137 
H 5.99318 1.78584 1.92027 
H 6.13761 3.22869 3.79115 
H 6.97051 1.83394 4.4974 
H 4.89799 1.04295 5.51854 
H 4.83976 2.79271 5.8024 
H 2.80227 1.51034 4.4902 
H 3.32567 3.13008 3.95086 
H 5.0453 -0.36753 1.13174 
H 7.04139 -2.3017 1.69872 
H 3.81587 -1.62354 0.34394 
H 4.75142 -1.93137 -2.36929 
H 3.4647 -0.54443 -3.63311 
H 2.37853 1.49489 -3.67999 
H 1.59948 1.19141 -2.1405 
H 0.86571 -0.19522 -4.7802 
H 0.21105 -1.4651 -2.73085 
H 0.06978 -1.26263 -0.6257 
H -2.22803 0.26216 0.44454 
H 1.34473 0.27425 0.41641 
H 1.52319 2.01394 2.75828 
H 0.82535 3.69376 1.07302 
H 2.52044 3.9628 1.51514 
H 2.11621 3.17501 -0.01653 
H -0.27841 -1.70841 1.78785 
H -1.79328 -2.1843 1.04397 
H -1.51024 -0.35423 3.48686 
H -3.55833 0.26782 2.26145 
H -4.02949 -1.43546 2.11314 
H -3.99605 -0.64856 3.70002 
H -0.92537 -2.71728 3.93571 
H -2.43871 -2.26996 4.7336 
H -2.47453 -3.24808 3.25592 
H -3.06384 -0.57958 -5.18835 
H -2.61214 0.62551 -4.00905 
H -3.44807 -1.02095 -2.16925 
H -3.95427 -2.08768 -3.46079 
H -5.89071 -0.90962 -2.73786 
H -5.49098 -0.28082 -4.33348 
H -4.43319 1.72996 -3.28394 
H -4.73509 1.06242 -1.67858 
H -7.19986 1.115 -2.12822 
H -6.89249 1.77293 -3.73725 
H -5.78377 3.77156 -2.70733 
H -6.08922 3.11238 -1.09876 
H -8.55545 3.16472 -1.54588 
H -8.24985 3.82395 -3.15423 
H -7.14391 5.8258 -2.12356 
H -7.44943 5.16648 -0.51516 
H -9.16231 6.8444 -1.12113 
H -9.60646 5.91229 -2.56122 
H -9.91365 5.24941 -0.94386 
H -0.47601 1.95744 -3.51474 
H 2.4893 -3.78474 -1.38117 
H 4.11319 -4.34357 -1.74995 
H 2.66157 -4.77645 -3.65498 
H 2.16912 -3.08232 -3.74999 
H 3.84355 -3.54232 -4.12157 
H 5.61093 -2.93932 3.6102 
H 3.37096 -2.24748 2.72393 
H 3.37785 -3.66805 1.65723 
H 3.39337 -3.87377 3.40795 
H 6.93172 -4.68936 2.4296 
H 5.47419 -5.33297 3.19629 
H 5.51232 -5.09498 1.44505 
*