!RI BP86 def2-SVP def2/J D3BJ TIGHTSCF TightOpt Grid5 FinalGrid6 freq
%maxcore 950
%pal nprocs 16
end
* xyz 0 1 
O 3.85899 -3.37506 -0.94519 
C 3.83786 -2.23009 -0.4886 
C 4.05665 -0.98603 -1.37597 
C 5.52622 -0.87625 -1.78609 
C 6.11948 0.05041 -0.73059 
C 5.00173 1.04973 -0.47835 
N 3.77484 0.30103 -0.72237 
C 2.4832 0.75051 -0.55061 
O 1.52349 0.00246 -0.77451 
N 3.7083 -1.98478 0.85872 
C 3.5006 -3.05705 1.83959 
C 2.00489 -3.4618 1.8145 
N 1.12827 -2.40859 1.70967 
C -0.32811 -2.5444 1.69394 
C -0.86518 -1.20803 1.15807 
N -1.8498 -1.2928 0.20299 
C -2.35677 -0.10326 -0.46175 
C -3.41431 0.63436 0.3786 
C -3.49539 2.14141 0.08331 
C -2.53592 3.04023 0.86249 
N -1.54395 2.46541 1.61365 
C -0.5301 3.24865 2.33909 
C 0.73714 3.39742 1.4668 
N 1.06638 2.29673 0.70821 
C 2.26969 2.21635 -0.11674 
C 2.14039 3.08088 -1.3675 
O 1.48102 4.37785 1.54478 
C -0.20345 2.55597 3.67138 
C 0.74128 3.33577 4.60803 
C 1.03955 2.49465 5.85296 
C 0.16611 4.6889 5.02729 
O -2.64935 4.26992 0.80378 
C -3.48915 2.43017 -1.41557 
C -2.23325 3.03395 -2.04044 
C -2.19239 2.93763 -3.56733 
C -2.03257 1.51848 -4.12388 
C -0.66697 0.89479 -3.82732 
C -0.54275 -0.48789 -4.47186 
C 0.78077 -1.15866 -4.10334 
C 0.93288 -2.51318 -4.79656 
C 2.23716 -3.19904 -4.39148 
C 2.4036 -4.5392 -5.08909 
O -4.48592 2.17382 -2.10558 
O -4.68907 -0.00969 0.15622 
O -0.43942 -0.11547 1.54862 
C -0.87841 -2.80931 3.09986 
C -2.36872 -3.12013 3.09793 
O 1.6217 -4.61682 2.00772 
C 3.93575 -2.60014 3.25081 
C 3.71236 -3.69581 4.29906 
C 5.41417 -2.1904 3.26935 
H 3.40353 -1.09646 -2.24872 
H 5.60055 -0.3986 -2.77087 
H 6.04816 -1.83667 -1.83249 
H 6.33358 -0.51558 0.18367 
H 7.04583 0.53081 -1.05729 
H 5.0184 1.44352 0.54145 
H 5.04228 1.88248 -1.18766 
H 3.68813 -1.01503 1.16257 
H 4.08123 -3.93062 1.51847 
H 1.51636 -1.48261 1.5389 
H -0.58211 -3.3646 1.01329 
H -2.22099 -2.2011 -0.0636 
H -2.77053 -0.43285 -1.42035 
H -1.49174 0.53682 -0.64971 
H -3.21799 0.48104 1.44587 
H -4.4856 2.48276 0.42363 
H -1.39139 1.45774 1.60497 
H -0.93479 4.25105 2.50789 
H 0.47693 1.46408 0.76811 
H 3.10447 2.56692 0.49544 
H 2.00897 4.13675 -1.11064 
H 3.02776 2.99561 -2.00267 
H 1.27541 2.77782 -1.96824 
H 0.24656 1.57548 3.46781 
H -1.14323 2.35133 4.20247 
H 1.69485 3.51015 4.09595 
H 1.49001 1.53554 5.57597 
H 1.7423 3.01309 6.51391 
H 0.1268 2.28942 6.4227 
H 0.07454 5.36598 4.17298 
H -0.82354 4.57589 5.48252 
H 0.81933 5.17899 5.75747 
H -1.34444 2.5692 -1.60823 
H -2.21938 4.09552 -1.76938 
H -1.36597 3.55803 -3.93567 
H -3.11158 3.37027 -3.98159 
H -2.16795 1.56535 -5.2119 
H -2.8277 0.8694 -3.7405 
H -0.51875 0.80265 -2.74779 
H 0.12796 1.54806 -4.20667 
H -0.6183 -0.39081 -5.56168 
H -1.37485 -1.12347 -4.14492 
H 0.82542 -1.29966 -3.01745 
H 1.61751 -0.50658 -4.38158 
H 0.91172 -2.37334 -5.88417 
H 0.08409 -3.15747 -4.53675 
H 2.25099 -3.35582 -3.30707 
H 3.09006 -2.55606 -4.63808 
H 3.34157 -5.01221 -4.78184 
H 1.58241 -5.21759 -4.83662 
H 2.42561 -4.41542 -6.17651 
H -5.32709 0.42412 0.75898 
H -0.69402 -1.94496 3.75039 
H -0.35123 -3.65615 3.55481 
H -2.70244 -3.36579 4.11118 
H -2.95628 -2.26395 2.7531 
H -2.59031 -3.97535 2.45173 
H 3.34191 -1.72557 3.54849 
H 2.64864 -3.92303 4.419 
H 4.23176 -4.61991 4.02364 
H 4.0847 -3.3783 5.2792 
H 5.60139 -1.33583 2.61168 
H 5.72312 -1.89555 4.27811 
H 6.05751 -3.01609 2.9466 
*