!RI BP86 def2-SVP def2/J D3BJ TIGHTSCF TightOpt Grid5 FinalGrid6 freq
%maxcore 950
%pal nprocs 16
end
* xyz 0 1 
O 1.6815 -2.33203 -2.46347 
C 2.33768 -1.96611 -1.48633 
C 3.7909 -1.45526 -1.62277 
C 4.79608 -2.60019 -1.48931 
C 5.19876 -2.57384 -0.01801 
C 5.16207 -1.097 0.34017 
N 4.17868 -0.5147 -0.56429 
C 3.77979 0.80427 -0.61657 
O 3.06187 1.20973 -1.54002 
N 1.89043 -2.1364 -0.19683 
C 0.58989 -2.70752 0.17195 
C 0.11272 -2.09229 1.51669 
N 0.46648 -0.77406 1.70161 
C 0.22983 -0.03241 2.94799 
C -0.63251 1.21782 2.65582 
N -1.60949 1.02351 1.70768 
C -2.57518 2.01878 1.29523 
C -2.03567 3.38199 0.79994 
C -0.95176 3.37989 -0.29741 
C 0.29434 4.17665 0.06844 
N 0.8194 3.98988 1.32082 
C 2.04827 4.62779 1.81341 
C 3.20498 3.5917 1.81931 
N 3.24025 2.76487 0.71951 
C 4.28262 1.76808 0.47792 
C 5.57376 2.42943 0.00697 
O 4.10965 3.58005 2.65558 
C 1.79304 5.23334 3.20596 
C 2.39564 6.63393 3.44978 
C 3.9148 6.67017 3.30022 
C 1.74345 7.70104 2.56755 
O 0.84545 4.91477 -0.75364 
C -0.57413 2.00819 -0.82428 
C -1.42034 1.46672 -1.96686 
C -1.28891 -0.04708 -2.09463 
C -2.17542 -0.60649 -3.20575 
C -2.02658 -2.12549 -3.31029 
C -2.91547 -2.7023 -4.41216 
C -2.75703 -4.22058 -4.51148 
C -3.64428 -4.8022 -5.61305 
C -3.48552 -6.31923 -5.71119 
C -4.36557 -6.90181 -6.80553 
O 0.38215 1.36994 -0.36571 
O -3.16997 4.13059 0.28675 
O -0.53324 2.28396 3.26383 
C 1.57729 0.31997 3.58871 
C 1.46799 0.63174 5.07502 
O -0.61891 -2.67935 2.31506 
C 0.58782 -4.25651 0.25112 
C 0.68534 -4.92118 -1.12391 
C 1.68189 -4.80904 1.17001 
H 3.87255 -0.96324 -2.59906 
H 5.67796 -2.38739 -2.10608 
H 4.39733 -3.57362 -1.79072 
H 4.4683 -3.1242 0.58331 
H 6.18028 -3.02241 0.16002 
H 4.87837 -0.92953 1.38251 
H 6.12805 -0.61939 0.14999 
H 2.49096 -1.80886 0.55541 
H -0.13791 -2.3898 -0.58335 
H 0.85454 -0.26042 0.90703 
H -0.35083 -0.66615 3.62818 
H -1.65681 0.09607 1.29 
H -3.24157 2.19353 2.14919 
H -3.20212 1.55941 0.52236 
H -1.70039 3.96104 1.66637 
H -1.35152 3.92477 -1.16672 
H 0.38261 3.32074 1.95261 
H 2.33859 5.4 1.09467 
H 2.47329 2.81235 0.04961 
H 4.44885 1.23664 1.41862 
H 5.9697 3.11388 0.76391 
H 6.34666 1.68684 -0.21243 
H 5.40737 3.01046 -0.9076 
H 2.15781 4.55341 3.98675 
H 0.71069 5.31608 3.37813 
H 2.16604 6.89732 4.49115 
H 4.38797 5.94083 3.96531 
H 4.2294 6.45844 2.27356 
H 4.30347 7.65893 3.56745 
H 0.65361 7.6803 2.67197 
H 2.08546 8.7 2.85951 
H 1.98691 7.56607 1.50944 
H -1.09688 1.96198 -2.88863 
H -2.46734 1.7299 -1.78373 
H -1.55752 -0.51638 -1.14056 
H -0.24316 -0.30831 -2.2942 
H -1.90558 -0.14215 -4.16186 
H -3.223 -0.35173 -3.00485 
H -2.2867 -2.58713 -2.34981 
H -0.9795 -2.37778 -3.51599 
H -2.65591 -2.24163 -5.37303 
H -3.96384 -2.45429 -4.20661 
H -3.01578 -4.68056 -3.54993 
H -1.70806 -4.4678 -4.71569 
H -3.38516 -4.34263 -6.57467 
H -4.69324 -4.55495 -5.40904 
H -3.74763 -6.78391 -4.75355 
H -2.43914 -6.57165 -5.91877 
H -4.23641 -7.98738 -6.85806 
H -5.42266 -6.69446 -6.61087 
H -4.10684 -6.48123 -7.78252 
H -3.79758 4.22056 1.03423 
H 2.03261 1.17205 3.07204 
H 2.27212 -0.52193 3.47349 
H 2.46045 0.83999 5.48761 
H 0.83947 1.50602 5.26359 
H 1.04753 -0.21799 5.6223 
H -0.37743 -4.5687 0.67221 
H -0.06549 -4.51679 -1.81043 
H 1.67551 -4.79011 -1.57044 
H 0.50782 -5.99909 -1.03907 
H 1.63573 -4.35901 2.16635 
H 1.56687 -5.89172 1.29211 
H 2.67979 -4.62958 0.75962 
*