!RI BP86 def2-SVP def2/J D3BJ TIGHTSCF TightOpt Grid5 FinalGrid6 freq
%maxcore 950
%pal nprocs 16
end
* xyz 0 1 
O 2.14448 2.31872 -2.64877 
C 2.52892 2.15638 -1.49036 
C 2.31398 3.21844 -0.38851 
C 3.60764 3.98626 -0.09767 
C 3.60105 4.16952 1.41649 
C 2.94386 2.89752 1.92555 
N 1.96611 2.58615 0.89523 
C 0.74955 1.96577 1.05527 
O -0.07043 1.94592 0.12831 
N 3.28815 1.07457 -1.10329 
C 3.64421 -0.06284 -1.96018 
C 3.84251 -1.33429 -1.08446 
N 3.16119 -1.32254 0.11504 
C 3.40413 -2.29771 1.18378 
C 2.38776 -3.46594 1.20086 
N 1.57934 -3.57809 0.09151 
C 0.63842 -4.67292 -0.06042 
C -0.3483 -4.53928 -1.23332 
C -1.23239 -3.28388 -1.30495 
C -1.88481 -2.9469 0.02119 
N -1.08558 -2.32825 0.9515 
C -1.504 -2.06118 2.33742 
C -0.58999 -0.95624 2.92784 
N -0.36716 0.09266 2.06626 
C 0.42652 1.28043 2.39289 
C -0.35627 2.23803 3.28209 
O -0.18395 -0.93443 4.08911 
C -1.44987 -3.35217 3.17232 
C -2.27434 -3.31161 4.47599 
C -3.77956 -3.25798 4.205 
C -1.95232 -4.54358 5.32691 
O -3.05349 -3.25215 0.26584 
C -0.54757 -2.08975 -1.94067 
C -1.41855 -1.1439 -2.7498 
C -1.22096 0.29349 -2.2925 
C -1.94364 1.28971 -3.19833 
C -1.72392 2.72267 -2.70874 
C -2.35972 3.74749 -3.64823 
C -2.24556 5.18697 -3.13557 
C -0.80106 5.68165 -3.02487 
C -0.74658 7.15416 -2.61692 
C 0.68817 7.64009 -2.4836 
O 0.668 -1.88672 -1.8214 
O 0.34835 -4.74236 -2.48104 
O 2.33144 -4.29007 2.11652 
C 3.42914 -1.56574 2.5341 
C 4.2712 -2.27388 3.58718 
O 4.49094 -2.31784 -1.44525 
C 4.91616 0.18708 -2.81357 
C 4.69325 1.205 -3.93351 
C 6.12364 0.60815 -1.96728 
H 1.49539 3.88485 -0.68253 
H 3.63856 4.94424 -0.62646 
H 4.49737 3.42106 -0.39842 
H 4.60113 4.32302 1.8309 
H 2.98482 5.03878 1.67677 
H 3.6585 2.06919 1.97029 
H 2.48397 3.02749 2.90703 
H 3.63242 1.06206 -0.14691 
H 2.79199 -0.26438 -2.62033 
H 2.4331 -0.62351 0.23959 
H 4.38471 -2.75171 0.99428 
H 1.69791 -2.89265 -0.65897 
H 0.09934 -4.80056 0.8842 
H 1.24734 -5.57416 -0.2031 
H -1.02496 -5.39978 -1.14783 
H -2.04409 -3.53924 -2.00222 
H -0.11167 -2.14325 0.71529 
H -2.5211 -1.66017 2.28841 
H -0.79566 0.05606 1.14175 
H 1.34149 0.94655 2.89087 
H -0.59937 1.77561 4.24405 
H 0.21054 3.15314 3.47927 
H -1.30063 2.53269 2.80981 
H -0.40096 -3.57316 3.41265 
H -1.80143 -4.20134 2.57159 
H -2.00117 -2.42579 5.05981 
H -4.06465 -2.32991 3.70167 
H -4.10082 -4.09753 3.57919 
H -4.34367 -3.30251 5.14304 
H -0.88544 -4.579 5.57178 
H -2.50878 -4.52202 6.26997 
H -2.21126 -5.46913 4.80136 
H -2.47241 -1.42165 -2.64243 
H -1.14883 -1.27035 -3.80403 
H -0.15173 0.53483 -2.27004 
H -1.59163 0.39045 -1.26525 
H -3.01668 1.06509 -3.21814 
H -1.57038 1.18918 -4.22462 
H -0.64749 2.90889 -2.63217 
H -2.14616 2.83401 -1.70281 
H -3.42315 3.50994 -3.77466 
H -1.8989 3.67495 -4.64086 
H -2.73836 5.26741 -2.15893 
H -2.79799 5.83984 -3.82267 
H -0.29083 5.54732 -3.98625 
H -0.25663 5.08866 -2.28177 
H -1.26399 7.29514 -1.66082 
H -1.2669 7.76726 -3.36184 
H 0.70561 8.6945 -2.19077 
H 1.22747 7.06699 -1.7224 
H 1.22529 7.54177 -3.43237 
H 1.08802 -4.09674 -2.48251 
H 2.40993 -1.43674 2.91465 
H 3.84479 -0.55846 2.40252 
H 4.29317 -1.68197 4.50798 
H 3.86931 -3.25917 3.83653 
H 5.30295 -2.39926 3.24358 
H 5.18004 -0.75768 -3.30774 
H 3.8059 0.95309 -4.523 
H 4.58014 2.22117 -3.54417 
H 5.5508 1.21371 -4.61561 
H 6.33953 -0.12619 -1.18507 
H 7.01867 0.69357 -2.59326 
H 5.96202 1.57869 -1.48722 
*