!RI BP86 def2-SVP def2/J D3BJ TIGHTSCF TightOpt Grid5 FinalGrid6 freq
%maxcore 950
%pal nprocs 16
end
* xyz 0 1 
O 3.01667 -1.93019 0.70031 
C 2.72382 -1.20436 -0.25172 
C 3.60523 -0.02331 -0.72259 
C 4.20851 -0.31838 -2.1021 
C 5.52212 -1.01076 -1.76419 
C 5.99986 -0.2497 -0.53997 
N 4.78593 0.18407 0.13712 
C 4.85068 0.75375 1.39694 
O 5.94448 0.83537 1.97375 
N 1.56688 -1.37266 -0.97771 
C 0.59682 -2.46998 -0.83475 
C -0.30305 -2.2562 0.40362 
N 0.34439 -2.22876 1.6131 
C -0.34022 -2.03793 2.8906 
C 0.0137 -0.61815 3.37067 
N -0.85152 0.36599 2.94059 
C -0.64187 1.76147 3.27116 
C -1.59028 2.75589 2.57637 
C -1.62887 2.71883 1.038 
C -0.23271 2.6714 0.4504 
N 0.52377 3.80615 0.62347 
C 1.87794 3.97209 0.06416 
C 2.94229 3.3226 0.99544 
N 2.67187 2.01287 1.32658 
C 3.53507 1.14624 2.11975 
C 3.78981 1.70933 3.51603 
O 4.0025 3.86307 1.30905 
C 2.15034 5.46263 -0.19185 
C 3.3281 5.75798 -1.1452 
C 3.06436 5.26261 -2.56878 
C 3.60202 7.26478 -1.17082 
O 0.22377 1.68335 -0.12915 
C -2.50639 1.60839 0.47523 
C -2.84059 1.68277 -1.00615 
C -2.55016 0.36224 -1.71239 
C -2.80648 0.47487 -3.21576 
C -2.39641 -0.77482 -4.0003 
C -3.20552 -2.0182 -3.62489 
C -3.0011 -3.18699 -4.5942 
C -1.56685 -3.71816 -4.61155 
C -1.44586 -4.96015 -5.49497 
C -0.02886 -5.5111 -5.4916 
O -2.97571 0.71073 1.18825 
O -2.91401 2.64846 3.13773 
O 1.04026 -0.35383 4.00035 
C 0.11655 -3.10976 3.88436 
C -0.68254 -3.07759 5.17953 
O -1.53111 -2.19639 0.31436 
C 1.22866 -3.88427 -0.87641 
C 2.03436 -4.09303 -2.16429 
C 0.16285 -4.98247 -0.76946 
H 2.99262 0.877 -0.77536 
H 4.41848 0.62457 -2.62243 
H 3.57702 -0.93063 -2.75178 
H 5.33594 -2.06065 -1.50808 
H 6.2437 -0.98184 -2.58513 
H 6.61986 -0.86159 0.12239 
H 6.56398 0.64684 -0.82103 
H 1.32761 -0.65097 -1.65338 
H -0.06556 -2.36271 -1.70478 
H 1.36637 -2.22765 1.60684 
H -1.42351 -2.10937 2.74152 
H -1.67222 0.0948 2.39292 
H 0.40098 2.00883 3.05157 
H -0.76853 1.83913 4.35786 
H -1.2464 3.7547 2.87386 
H -2.10991 3.65023 0.70685 
H 0.14649 4.57573 1.17018 
H 1.90037 3.41217 -0.87664 
H 1.80726 1.60847 0.97108 
H 2.97198 0.2156 2.24552 
H 2.85011 1.98549 4.00568 
H 4.29425 0.96732 4.14458 
H 4.42778 2.59845 3.48979 
H 2.32979 5.96084 0.77056 
H 1.24556 5.92799 -0.60711 
H 4.23454 5.26514 -0.77715 
H 3.00314 4.17133 -2.60907 
H 2.12962 5.67276 -2.96565 
H 3.8759 5.5634 -3.24044 
H 3.83733 7.63453 -0.16718 
H 4.45539 7.49473 -1.81768 
H 2.7348 7.82069 -1.54333 
H -2.25958 2.48826 -1.46837 
H -3.89803 1.95511 -1.09628 
H -3.17737 -0.42575 -1.28056 
H -1.50819 0.07081 -1.53678 
H -2.24094 1.32617 -3.61488 
H -3.86707 0.69022 -3.39413 
H -1.32746 -0.9611 -3.84435 
H -2.53073 -0.56506 -5.06857 
H -4.27303 -1.76618 -3.61563 
H -2.94586 -2.34281 -2.61053 
H -3.29397 -2.88095 -5.60593 
H -3.68136 -3.99613 -4.30056 
H -1.25657 -3.96285 -3.59047 
H -0.88308 -2.94615 -4.98208 
H -1.73463 -4.71359 -6.5233 
H -2.1329 -5.73816 -5.14235 
H 0.03801 -6.38873 -6.14211 
H 0.6845 -4.76395 -5.8537 
H 0.27102 -5.81341 -4.48317 
H -3.22412 1.74369 2.90815 
H 1.18311 -2.9967 4.11501 
H 0.00134 -4.1012 3.42824 
H -0.35242 -3.88115 5.84553 
H -0.5507 -2.12845 5.70781 
H -1.75054 -3.21754 4.9843 
H 1.91039 -4.01951 -0.02908 
H 2.88594 -3.40837 -2.21822 
H 2.43446 -5.11152 -2.21308 
H 1.41268 -3.93137 -3.05093 
H -0.35258 -4.94465 0.19541 
H -0.58805 -4.88974 -1.5595 
H 0.61848 -5.97521 -0.85267 
*