!RI BP86 def2-SVP def2/J D3BJ TIGHTSCF TightOpt Grid5 FinalGrid6 freq
%maxcore 950
%pal nprocs 16
end
* xyz 0 1 
O 3.17388 -3.0543 3.52173 
C 2.61151 -2.50228 2.57027 
C 1.40443 -3.16789 1.87946 
C 1.83194 -3.99499 0.66411 
C 1.48085 -3.11556 -0.53096 
C 0.22569 -2.39423 -0.07167 
N 0.41404 -2.22215 1.36242 
C -0.40888 -1.52665 2.23219 
O -0.30803 -1.69328 3.4535 
N 3.11382 -1.34928 1.99904 
C 4.23255 -0.61466 2.61195 
C 4.37769 0.82649 2.06445 
N 4.47021 0.93642 0.70177 
C 4.79664 2.17798 -0.00718 
C 4.53668 1.901 -1.49963 
N 3.7434 2.82558 -2.14267 
C 3.30573 2.65754 -3.51927 
C 1.84665 2.16401 -3.64804 
C 1.57391 0.86015 -2.87719 
C 1.46759 1.00158 -1.36729 
N 0.69725 2.03808 -0.89609 
C 0.71148 2.45173 0.50906 
C 0.07907 1.43702 1.48584 
N -0.76339 0.52046 0.90227 
C -1.44438 -0.55186 1.6216 
C -2.42786 -0.02343 2.66049 
O 0.26446 1.49364 2.70204 
C 0.11181 3.85435 0.71233 
C -1.42722 3.98356 0.66617 
C -2.02838 3.63881 -0.69474 
C -1.82703 5.41399 1.04658 
O 2.01469 0.2081 -0.59579 
C 0.41342 0.05537 -3.43854 
C -0.87887 0.78111 -3.78978 
C -1.97803 -0.14059 -4.3247 
C -2.64856 -1.03059 -3.27242 
C -3.48611 -0.2433 -2.26374 
C -4.24673 -1.18065 -1.32444 
C -5.06432 -0.39073 -0.30204 
C -5.72801 -1.3179 0.71639 
C -6.52952 -0.52556 1.74856 
C -7.17978 -1.44278 2.77176 
O 0.51774 -1.17355 -3.56287 
O 0.94034 3.2154 -3.25491 
O 4.96669 0.89322 -2.06755 
C 6.26534 2.57258 0.19722 
C 6.5873 3.94317 -0.38253 
O 4.53502 1.7983 2.80729 
C 5.57695 -1.39844 2.54141 
C 6.02255 -1.77124 1.12412 
C 6.70616 -0.66044 3.26863 
H 0.92116 -3.80752 2.62866 
H 1.23618 -4.91512 0.62014 
H 2.88892 -4.27837 0.67235 
H 2.29159 -2.40222 -0.71373 
H 1.32236 -3.68958 -1.44811 
H 0.05854 -1.45029 -0.58747 
H -0.66272 -3.02072 -0.21267 
H 2.59196 -0.91897 1.23296 
H 3.96238 -0.50303 3.67144 
H 4.24442 0.12036 0.13372 
H 4.13044 2.96182 0.36846 
H 3.40269 3.63408 -1.62766 
H 3.97781 1.96278 -4.03408 
H 3.40829 3.64115 -3.9902 
H 1.66123 1.99221 -4.71581 
H 2.44869 0.21619 -3.05492 
H 0.40042 2.72299 -1.59664 
H 1.77183 2.49937 0.78702 
H -0.89221 0.59045 -0.10325 
H -2.01522 -1.10741 0.87075 
H -3.11464 0.70385 2.21613 
H -3.02081 -0.84428 3.07827 
H -1.92265 0.46841 3.4977 
H 0.55569 4.54273 -0.01948 
H 0.44176 4.20754 1.69934 
H -1.86838 3.31497 1.41509 
H -1.91402 2.57709 -0.92155 
H -3.10302 3.85138 -0.7109 
H -1.55933 4.21803 -1.49693 
H -1.4506 5.67251 2.04203 
H -1.42711 6.14171 0.33216 
H -2.91678 5.52202 1.06669 
H -0.64582 1.49999 -4.58215 
H -1.22565 1.33765 -2.91726 
H -1.56323 -0.7832 -5.11133 
H -2.74822 0.47606 -4.80474 
H -1.90027 -1.63024 -2.74261 
H -3.30155 -1.73911 -3.79751 
H -4.19823 0.40003 -2.79425 
H -2.83816 0.40873 -1.66931 
H -3.53609 -1.83615 -0.80771 
H -4.91489 -1.8274 -1.90596 
H -5.83049 0.19739 -0.82173 
H -4.41404 0.32103 0.219 
H -4.96019 -1.91215 1.22682 
H -6.38928 -2.02197 0.19687 
H -7.30664 0.06168 1.24572 
H -5.87265 0.18225 2.26742 
H -7.74853 -0.85577 3.49966 
H -7.86763 -2.14418 2.28887 
H -6.42555 -2.02015 3.31599 
H 1.14528 3.98126 -3.83259 
H 6.92833 1.82572 -0.25736 
H 6.50714 2.58879 1.26609 
H 7.62689 4.20837 -0.16505 
H 6.45996 3.95887 -1.46912 
H 5.94316 4.71385 0.05259 
H 5.44164 -2.34615 3.07605 
H 5.22128 -2.26627 0.56698 
H 6.35583 -0.89913 0.55445 
H 6.86819 -2.46712 1.1665 
H 6.40869 -0.40322 4.29055 
H 7.59895 -1.2922 3.33159 
H 6.99055 0.26113 2.75069 
*