!RI BP86 def2-SVP def2/J D3BJ TIGHTSCF TightOpt Grid5 FinalGrid6 freq
%maxcore 950
%pal nprocs 16
end
* xyz 0 1 
O 7.05781 -1.3268 1.39749 
C 6.01143 -0.96553 1.94003 
C 5.88234 0.39601 2.65401 
C 6.57552 0.3438 4.01664 
C 5.45481 -0.05887 4.96875 
C 4.24345 0.67117 4.4094 
N 4.50225 0.78688 2.97697 
C 3.66948 1.34179 2.02353 
O 4.00641 1.37828 0.83379 
N 4.92099 -1.79827 2.05058 
C 4.89701 -3.14459 1.46764 
C 4.61961 -3.00649 -0.04816 
N 3.67392 -2.06271 -0.37351 
C 3.25319 -1.7704 -1.73995 
C 2.54605 -0.40271 -1.69848 
N 2.79694 0.41761 -2.77247 
C 2.2072 1.73576 -2.9299 
C 0.93878 1.73034 -3.80026 
C -0.27608 1.07428 -3.12116 
C -0.84764 1.93366 -2.01113 
N -0.44484 1.59529 -0.73596 
C -0.89415 2.34293 0.44349 
C -0.00706 2.0764 1.68797 
N 1.34206 1.95337 1.43515 
C 2.34226 1.96846 2.50411 
C 2.60499 3.40903 2.94269 
O -0.42874 2.14242 2.84531 
C -2.38799 2.08443 0.74131 
C -3.19649 3.381 0.97787 
C -2.75346 4.143 2.2267 
C -4.68791 3.05712 1.07943 
O -1.62485 2.86832 -2.2123 
C -1.30945 0.76565 -4.19039 
C -1.7339 -0.68134 -4.35808 
C -2.53878 -1.22349 -3.18227 
C -3.9545 -0.64214 -3.12595 
C -4.79231 -1.34367 -2.05282 
C -6.26291 -0.91725 -2.05912 
C -6.47434 0.51542 -1.56747 
C -7.96026 0.88251 -1.54841 
C -8.23367 2.26865 -0.96034 
C -7.67617 3.40665 -1.80146 
O -1.75901 1.64134 -4.94164 
O 0.66913 3.084 -4.21199 
O 1.77813 -0.07971 -0.78718 
C 2.2909 -2.84339 -2.26665 
C 2.05187 -2.73518 -3.76612 
O 5.10572 -3.76533 -0.88849 
C 3.8308 -4.02689 2.15589 
C 4.09803 -4.14839 3.66143 
C 3.77705 -5.43296 1.54781 
H 6.33195 1.15022 1.99796 
H 6.93814 1.3435 4.28596 
H 7.42116 -0.34921 4.05832 
H 5.29841 -1.14258 4.92515 
H 5.66255 0.21013 6.00815 
H 3.31055 0.1301 4.58939 
H 4.16318 1.67662 4.83193 
H 4.08448 -1.42641 2.49237 
H 5.89627 -3.58292 1.58037 
H 3.31183 -1.46893 0.37007 
H 4.15423 -1.71638 -2.36151 
H 3.43882 0.09507 -3.49293 
H 2.97182 2.36105 -3.4059 
H 2.01584 2.18297 -1.94912 
H 1.16996 1.18108 -4.72284 
H 0.02555 0.10919 -2.70281 
H 0.21135 0.82001 -0.60539 
H -0.74194 3.40085 0.19222 
H 1.66999 1.85867 0.4746 
H 1.93919 1.39097 3.34083 
H 1.69444 3.87648 3.33188 
H 3.37094 3.46626 3.72087 
H 2.9519 4.01699 2.09879 
H -2.5048 1.41607 1.60381 
H -2.84882 1.55278 -0.10201 
H -3.06066 4.04 0.11078 
H -1.71724 4.48315 2.1415 
H -3.3732 5.03394 2.37635 
H -2.84073 3.52067 3.12347 
H -5.04021 2.59073 0.15562 
H -4.89307 2.37239 1.9091 
H -5.27753 3.96692 1.23443 
H -0.8239 -1.27599 -4.49538 
H -2.30585 -0.77151 -5.28897 
H -2.02541 -1.02946 -2.23367 
H -2.60397 -2.31316 -3.29101 
H -4.43998 -0.76372 -4.10175 
H -3.89921 0.43242 -2.92056 
H -4.35506 -1.16597 -1.06281 
H -4.75553 -2.42673 -2.22472 
H -6.82048 -1.60149 -1.40738 
H -6.67836 -1.03313 -3.06744 
H -5.93096 1.21238 -2.21281 
H -6.06238 0.6108 -0.55661 
H -8.50477 0.1431 -0.94809 
H -8.36859 0.82667 -2.56485 
H -7.82535 2.33084 0.05504 
H -9.31882 2.4005 -0.87349 
H -7.98139 4.36947 -1.37913 
H -6.58291 3.38979 -1.8284 
H -8.04878 3.35441 -2.8293 
H -0.19329 3.05635 -4.68456 
H 1.32764 -2.77991 -1.74481 
H 2.69001 -3.84296 -2.05756 
H 1.3997 -3.54763 -4.10224 
H 1.56814 -1.79066 -4.02906 
H 2.9938 -2.8065 -4.31908 
H 2.8413 -3.56827 2.02719 
H 4.03086 -3.17615 4.15885 
H 3.36051 -4.80495 4.13575 
H 5.09337 -4.56272 3.85472 
H 3.45402 -5.40422 0.50267 
H 4.75647 -5.92131 1.59095 
H 3.06137 -6.06308 2.08714 
*