!RI BP86 def2-SVP def2/J D3BJ TIGHTSCF TightOpt Grid5 FinalGrid6 freq
%maxcore 950
%pal nprocs 16
end
* xyz 0 1 
O 4.74853 1.82828 -1.87921 
C 4.21715 1.73784 -0.76934 
C 3.1409 2.74597 -0.30622 
C 3.80137 4.02471 0.21665 
C 3.8847 3.80208 1.72278 
C 2.61247 3.03345 2.037 
N 2.30383 2.3016 0.81434 
C 1.22357 1.47216 0.60306 
O 1.02306 0.97826 -0.5152 
N 4.67453 0.86223 0.19132 
C 5.87923 0.04537 0.01186 
C 5.63377 -1.47209 -0.15423 
N 4.51755 -1.98238 0.46102 
C 4.25867 -3.42083 0.56504 
C 2.74425 -3.64061 0.41382 
N 2.33261 -3.90471 -0.87783 
C 0.92453 -3.99762 -1.22609 
C 0.29903 -2.61576 -1.52946 
C -1.23149 -2.67766 -1.42294 
C -1.84831 -2.4217 -0.04891 
N -1.04638 -2.60227 1.05277 
C -1.44514 -2.20624 2.40423 
C -0.99721 -0.74512 2.69562 
N -0.26148 -0.13682 1.70437 
C 0.2451 1.23135 1.77663 
C -0.88933 2.24774 1.67046 
O -1.2676 -0.16806 3.75141 
C -0.85954 -3.14083 3.47476 
C -1.57148 -4.50365 3.60853 
C -1.42759 -5.39008 2.37159 
C -1.02227 -5.2475 4.83078 
O -3.02975 -2.08399 0.07278 
C -1.82512 -1.74161 -2.46472 
C -1.64817 -0.24316 -2.26024 
C -2.7319 0.56554 -2.96851 
C -2.57234 2.06112 -2.69226 
C -3.65095 2.87813 -3.40465 
C -3.49138 4.3731 -3.12311 
C -4.57 5.19158 -3.83451 
C -4.41067 6.6864 -3.55224 
C -5.48848 7.50439 -4.26315 
C -5.33386 8.99102 -3.98471 
O -2.36768 -2.19412 -3.48214 
O 0.83687 -1.62758 -0.63353 
O 1.94513 -3.4906 1.34139 
C 4.72195 -3.97627 1.92009 
C 6.23517 -4.08878 2.03858 
O 6.47375 -2.20749 -0.68168 
C 6.91945 0.28999 1.13538 
C 6.34755 0.13759 2.54833 
C 7.57774 1.66506 0.98423 
H 2.50496 2.95555 -1.17465 
H 3.14997 4.88412 0.01498 
H 4.78145 4.22967 -0.22468 
H 4.76113 3.19275 1.96572 
H 3.95962 4.73616 2.28657 
H 2.74003 2.34346 2.87562 
H 1.7811 3.71177 2.25288 
H 4.15521 0.80842 1.0628 
H 6.34062 0.34081 -0.93979 
H 3.83306 -1.33908 0.84914 
H 4.77613 -3.94636 -0.24609 
H 3.02525 -3.93229 -1.6216 
H 0.40856 -4.49328 -0.39685 
H 0.83554 -4.65136 -2.10034 
H 0.6207 -2.33082 -2.53964 
H -1.5682 -3.68333 -1.71296 
H -0.0498 -2.78639 0.919 
H -2.53977 -2.20293 2.4672 
H -0.00684 -0.69342 0.88626 
H 0.75298 1.33481 2.73881 
H -1.59197 2.15174 2.50399 
H -0.50676 3.27324 1.66989 
H -1.457 2.10759 0.74336 
H -0.92325 -2.63938 4.44983 
H 0.21079 -3.29721 3.29304 
H -2.64051 -4.32551 3.78075 
H -1.99149 -4.98847 1.52563 
H -0.37872 -5.4923 2.07393 
H -1.82203 -6.394 2.56377 
H -1.15678 -4.65462 5.74173 
H -1.54471 -6.19914 4.97576 
H 0.04638 -5.46049 4.7185 
H -0.66017 0.03275 -2.64338 
H -1.67488 -0.01845 -1.18978 
H -3.72087 0.22885 -2.63355 
H -2.68514 0.38306 -4.04918 
H -1.58064 2.39215 -3.02403 
H -2.62883 2.24289 -1.6122 
H -4.64233 2.54563 -3.07362 
H -3.59378 2.69935 -4.48525 
H -2.49991 4.70544 -3.45409 
H -3.54798 4.55138 -2.04234 
H -5.56144 4.85895 -3.50379 
H -4.51305 5.0137 -4.9153 
H -3.41914 7.01919 -3.88269 
H -4.46749 6.86438 -2.47142 
H -6.48176 7.17827 -3.93339 
H -5.43317 7.33349 -5.34455 
H -6.11455 9.55685 -4.50266 
H -5.41675 9.20017 -2.9134 
H -4.36222 9.35631 -4.33226 
H 0.91793 -0.77951 -1.12756 
H 4.29414 -4.97605 2.06772 
H 4.34493 -3.35023 2.73874 
H 6.5028 -4.55704 2.99127 
H 6.64777 -4.70365 1.23255 
H 6.71548 -3.10721 2.00616 
H 7.71765 -0.45737 1.0299 
H 5.86688 -0.83515 2.68352 
H 7.14821 0.21336 3.29241 
H 5.61373 0.91624 2.77868 
H 8.05155 1.76283 0.00175 
H 6.85191 2.47626 1.09145 
H 8.35516 1.80741 1.74252 
*