!RI BP86 def2-SVP def2/J D3BJ TIGHTSCF TightOpt Grid5 FinalGrid6 freq
%maxcore 950
%pal nprocs 16
end
* xyz 0 1 
O 5.20273 -2.40873 2.66293 
C 4.49643 -1.44483 2.3573 
C 4.92614 0.02579 2.60545 
C 5.85716 0.13659 3.81517 
C 4.88001 0.31675 4.97293 
C 3.81134 1.22475 4.38187 
N 3.81714 0.93128 2.95315 
C 2.99654 1.48967 2.00244 
O 3.0706 1.11764 0.82136 
N 3.33661 -1.6116 1.63219 
C 2.8022 -2.93273 1.29465 
C 3.41171 -3.44738 -0.03089 
N 3.44847 -2.53842 -1.06511 
C 4.00636 -2.8359 -2.39168 
C 4.02079 -1.53634 -3.22959 
N 2.8113 -0.87446 -3.26115 
C 2.52599 0.28043 -4.10367 
C 1.93377 1.47753 -3.32975 
C 0.77685 1.09958 -2.39416 
C 0.16747 2.31573 -1.72468 
N -0.64695 2.01428 -0.65287 
C -1.19397 3.02909 0.26729 
C -0.32822 3.09036 1.55969 
N 0.93459 2.57197 1.41464 
C 1.98566 2.57683 2.42837 
C 2.66357 3.94038 2.47659 
O -0.68274 3.64239 2.60086 
C -2.66331 2.70336 0.57043 
C -3.50007 3.86391 1.14749 
C -3.62081 5.03819 0.1743 
C -4.89951 3.35635 1.50816 
O 0.41808 3.47237 -2.0606 
C -0.26512 0.27837 -3.1237 
C -1.15981 0.97544 -4.13801 
C -2.53983 0.32638 -4.24078 
C -3.36848 0.532 -2.96798 
C -4.73535 -0.14625 -3.07717 
C -5.63462 0.0992 -1.86168 
C -5.0867 -0.50565 -0.56689 
C -6.08733 -0.36036 0.58124 
C -5.50612 -0.88659 1.89315 
C -6.49109 -0.73029 3.04048 
O -0.32146 -0.94695 -2.94694 
O 3.00944 2.07055 -2.56853 
O 4.98978 -1.19436 -3.90799 
C 3.19793 -3.91846 -3.13205 
C 3.84062 -4.33421 -4.44938 
O 3.73986 -4.62664 -0.17993 
C 1.2561 -2.9426 1.32522 
C 0.70917 -4.36978 1.22197 
C 0.58697 -2.05786 0.27049 
H 5.41462 0.37522 1.68839 
H 6.48067 1.03478 3.72302 
H 6.51941 -0.72092 3.96139 
H 4.44322 -0.65063 5.24845 
H 5.34819 0.74527 5.86336 
H 2.82106 1.04083 4.8075 
H 4.07253 2.2769 4.52381 
H 2.913 -0.77936 1.22647 
H 3.15838 -3.62315 2.07114 
H 3.22675 -1.56922 -0.84698 
H 5.04073 -3.1645 -2.23776 
H 2.02873 -1.31121 -2.77479 
H 1.8247 -0.06397 -4.87087 
H 3.44664 0.58897 -4.61066 
H 1.61754 2.22912 -4.0637 
H 1.17561 0.48775 -1.57363 
H -0.76789 1.04001 -0.38435 
H -1.09587 4.00363 -0.21892 
H 1.16997 2.13818 0.52576 
H 1.53058 2.33052 3.39162 
H 1.94782 4.72626 2.7397 
H 3.47525 3.96623 3.20807 
H 3.09422 4.19982 1.5023 
H -2.7011 1.85358 1.26566 
H -3.14966 2.36004 -0.35248 
H -3.03777 4.23006 2.07 
H -2.65447 5.52278 0.0086 
H -4.01109 4.7118 -0.79564 
H -4.29878 5.8022 0.57033 
H -4.8427 2.52923 2.22363 
H -5.49592 4.15208 1.96704 
H -5.4338 3.00359 0.61962 
H -0.65178 0.92477 -5.10729 
H -1.27439 2.03237 -3.88103 
H -2.43962 -0.74558 -4.44916 
H -3.07231 0.7682 -5.09172 
H -3.5036 1.60557 -2.78997 
H -2.82382 0.12617 -2.10938 
H -4.60202 -1.22544 -3.22088 
H -5.25254 0.22962 -3.96863 
H -6.61966 -0.33525 -2.07265 
H -5.78651 1.17747 -1.7294 
H -4.15011 -0.01018 -0.28968 
H -4.85939 -1.56732 -0.72107 
H -7.00607 -0.90823 0.33885 
H -6.36403 0.69357 0.69935 
H -4.58428 -0.3451 2.136 
H -5.24222 -1.94507 1.78559 
H -6.05565 -1.11334 3.96867 
H -6.74863 0.32242 3.19527 
H -7.41405 -1.28498 2.84365 
H 2.65961 2.92561 -2.23698 
H 2.17499 -3.57323 -3.32593 
H 3.10046 -4.81619 -2.51341 
H 3.27187 -5.15268 -4.90236 
H 3.85987 -3.50789 -5.16615 
H 4.86666 -4.68156 -4.2923 
H 0.95016 -2.55156 2.30576 
H 1.14929 -5.01365 1.9906 
H -0.37683 -4.37777 1.36515 
H 0.91915 -4.81294 0.24299 
H 0.93839 -1.0244 0.33039 
H 0.76477 -2.4288 -0.7431 
H -0.49813 -2.03847 0.42278 
*