!RI BP86 def2-SVP def2/J D3BJ TIGHTSCF TightOpt Grid5 FinalGrid6 freq
%maxcore 950
%pal nprocs 16
end
* xyz 0 1 
O 4.50192 2.53916 0.43167 
C 3.62126 1.92288 1.03376 
C 2.24009 2.54203 1.33943 
C 2.37091 3.53097 2.49996 
C 2.05644 2.6809 3.72692 
C 0.9533 1.75928 3.23088 
N 1.23261 1.5763 1.81025 
C 0.59902 0.71794 0.93762 
O 0.97866 0.6282 -0.24016 
N 3.83914 0.68792 1.59511 
C 5.12051 -0.02521 1.55552 
C 4.89449 -1.46626 1.03497 
N 3.87903 -1.56953 0.10391 
C 3.57125 -2.82022 -0.59005 
C 2.97478 -2.53965 -1.98479 
N 2.00093 -1.56237 -2.04918 
C 1.51737 -1.04966 -3.32124 
C 0.52488 -1.9776 -4.05818 
C -0.95612 -1.57813 -3.94283 
C -1.71868 -2.02881 -2.70639 
N -1.04775 -2.71071 -1.7227 
C -1.72248 -3.25116 -0.53259 
C -1.42541 -2.39055 0.72414 
N -0.81858 -1.18809 0.46371 
C -0.57531 -0.14409 1.45893 
C -1.8496 0.67379 1.63676 
O -1.76684 -2.71483 1.8623 
C -1.34123 -4.71595 -0.26826 
C -1.82915 -5.77363 -1.28137 
C -1.11796 -5.70182 -2.63186 
C -3.34515 -5.75181 -1.4725 
O -2.93152 -1.81355 -2.60606 
C -1.13266 -0.10952 -4.30496 
C -1.67661 0.85921 -3.26378 
C -1.53662 2.31684 -3.71102 
C -2.14033 3.31214 -2.71821 
C -1.3034 3.48052 -1.44872 
C -1.9701 4.45948 -0.48001 
C -1.13614 4.65351 0.78649 
C -1.83459 5.59279 1.77108 
C -1.00699 5.78749 3.04082 
C -1.70842 6.7063 4.02815 
O -0.78387 0.28422 -5.42957 
O 0.89318 -2.03793 -5.46044 
O 3.27282 -3.2203 -2.96942 
C 2.63238 -3.68352 0.25792 
C 2.57483 -5.12303 -0.23494 
O 5.62825 -2.41895 1.29731 
C 5.8284 0.08214 2.92372 
C 5.13058 -0.71514 4.02963 
C 7.3097 -0.29506 2.84382 
H 1.88425 3.02473 0.42219 
H 1.61722 4.3198 2.40047 
H 3.35356 4.00706 2.57017 
H 2.93818 2.09745 4.01628 
H 1.74698 3.2783 4.58901 
H 0.93202 0.79896 3.75219 
H -0.01833 2.24832 3.33328 
H 3.05883 0.24404 2.07268 
H 5.74633 0.46455 0.79846 
H 3.36583 -0.7201 -0.1204 
H 4.52156 -3.3453 -0.74787 
H 1.74232 -1.05237 -1.20444 
H 2.39985 -0.8789 -3.95046 
H 1.09346 -0.065 -3.11117 
H 0.65408 -3.00917 -3.71467 
H -1.4827 -2.11045 -4.75204 
H -0.03639 -2.80375 -1.75237 
H -2.80642 -3.17403 -0.67028 
H -0.57046 -0.9791 -0.49987 
H -0.29055 -0.62652 2.39894 
H -2.67738 0.03844 1.97037 
H -1.73527 1.47391 2.36925 
H -2.15602 1.13544 0.69198 
H -1.73658 -5.00862 0.714 
H -0.25282 -4.7935 -0.17692 
H -1.5731 -6.74964 -0.84632 
H -0.03339 -5.63001 -2.50429 
H -1.32315 -6.60643 -3.21523 
H -1.45502 -4.85238 -3.23136 
H -3.86104 -5.79556 -0.50773 
H -3.67602 -4.85105 -1.99905 
H -3.66912 -6.6157 -2.06308 
H -1.12962 0.69973 -2.33031 
H -2.73521 0.63436 -3.10348 
H -2.05001 2.44332 -4.67288 
H -0.48121 2.55695 -3.88966 
H -3.16017 3.0025 -2.45958 
H -2.22324 4.28699 -3.2149 
H -0.30345 3.84472 -1.71355 
H -1.17236 2.51503 -0.95196 
H -2.96449 4.08331 -0.20985 
H -2.11437 5.4276 -0.97488 
H -0.15322 5.06045 0.52043 
H -0.96588 3.68357 1.26628 
H -2.81746 5.18277 2.03386 
H -2.00758 6.56451 1.29271 
H -0.0301 6.21418 2.786 
H -0.82459 4.81848 3.51957 
H -1.09796 6.83242 4.92778 
H -1.87812 7.69552 3.59116 
H -2.67613 6.29274 4.32953 
H 0.66721 -1.15784 -5.83777 
H 1.62278 -3.25777 0.26728 
H 2.9742 -3.6947 1.30029 
H 1.94547 -5.72449 0.42848 
H 2.15544 -5.18306 -1.2434 
H 3.57262 -5.5731 -0.24919 
H 5.79489 1.13864 3.22608 
H 4.08055 -0.42245 4.1289 
H 5.16749 -1.79265 3.84275 
H 5.6143 -0.53171 4.99538 
H 7.81551 0.27457 2.05727 
H 7.81241 -0.06872 3.79063 
H 7.45583 -1.35987 2.64264 
*