!RI BP86 def2-SVP def2/J D3BJ TIGHTSCF TightOpt Grid5 FinalGrid6 freq
%maxcore 950
%pal nprocs 16
end
* xyz 0 1 
O 1.99461 -2.67753 -2.16592 
C 2.60189 -1.83075 -1.50662 
C 3.84394 -1.09954 -2.06573 
C 5.09078 -1.97555 -1.94681 
C 5.69001 -1.57282 -0.60359 
C 5.38894 -0.08539 -0.5072 
N 4.19065 0.1104 -1.31382 
C 3.5252 1.29849 -1.53155 
O 2.57864 1.35348 -2.32611 
N 2.31247 -1.58492 -0.18414 
C 1.23868 -2.24022 0.55944 
C 0.64567 -1.24848 1.59292 
N -0.56554 -1.64264 2.11988 
C -1.21361 -1.00827 3.27577 
C -1.78499 0.39554 2.94591 
N -2.1588 0.54322 1.62668 
C -3.01879 1.59863 1.139 
C -2.42549 3.01586 1.12334 
C -1.23711 3.2762 0.18342 
C -0.06993 3.82927 0.97751 
N 0.61957 2.94117 1.7665 
C 1.82662 3.32823 2.50808 
C 3.06868 3.27046 1.58097 
N 2.89105 2.58475 0.40233 
C 3.90156 2.5007 -0.64635 
C 3.91193 3.77711 -1.48216 
O 4.15994 3.7486 1.89638 
C 2.02148 2.42127 3.73291 
C 2.2637 3.14816 5.07203 
C 3.51955 4.01691 5.05878 
C 1.04504 3.96277 5.51035 
O 0.22489 5.02675 0.93604 
C -0.84434 2.12044 -0.72242 
C -1.54249 2.05685 -2.07482 
C -1.24703 0.78093 -2.86465 
C -1.95967 -0.44587 -2.28672 
C -1.6022 -1.74999 -3.00483 
C -2.08769 -1.80303 -4.45444 
C -1.79571 -3.16696 -5.08444 
C -2.27361 -3.22322 -6.53631 
C -1.98172 -4.58542 -7.16508 
C -2.455 -4.64555 -8.60864 
O 0.01557 1.29429 -0.39596 
O -3.50769 3.90814 0.75192 
O -2.04742 1.24906 3.79279 
C -0.3247 -1.042 4.52542 
C -1.11994 -1.01278 5.82447 
O 1.22222 -0.21945 1.95133 
C 1.69717 -3.53781 1.27825 
C 2.82741 -3.29771 2.28531 
C 2.10412 -4.6387 0.29635 
H 3.62795 -0.84098 -3.10868 
H 5.79711 -1.72216 -2.74694 
H 4.88373 -3.04855 -2.00126 
H 5.18727 -2.11264 0.2049 
H 6.75996 -1.78831 -0.53409 
H 5.21705 0.23861 0.52328 
H 6.1934 0.51552 -0.94464 
H 2.81561 -0.83395 0.28396 
H 0.43868 -2.484 -0.15159 
H -0.99036 -2.49501 1.76455 
H -2.09552 -1.63709 3.45872 
H -1.88522 -0.20257 0.99019 
H -3.91426 1.6019 1.77424 
H -3.37165 1.30932 0.14364 
H -2.16937 3.29328 2.15279 
H -1.49923 4.09561 -0.50299 
H 0.4169 1.94279 1.67537 
H 1.71135 4.37843 2.79415 
H 1.97707 2.16447 0.22636 
H 4.88306 2.37851 -0.18332 
H 4.19684 4.64205 -0.87388 
H 4.62339 3.69227 -2.31036 
H 2.92448 3.98759 -1.90886 
H 2.85458 1.72717 3.56096 
H 1.13283 1.79469 3.86931 
H 2.41708 2.36779 5.82969 
H 4.39296 3.43308 4.75059 
H 3.41908 4.87084 4.38183 
H 3.72211 4.41263 6.05999 
H 0.1462 3.33736 5.53077 
H 1.19432 4.36273 6.51915 
H 0.85479 4.8095 4.84393 
H -1.18788 2.91802 -2.65311 
H -2.62144 2.16898 -1.9285 
H -0.16649 0.59971 -2.90238 
H -1.58092 0.94074 -3.89603 
H -3.04516 -0.29289 -2.31849 
H -1.68948 -0.56447 -1.23237 
H -2.05036 -2.58112 -2.44614 
H -0.51687 -1.89869 -2.97367 
H -1.59393 -1.02372 -5.04539 
H -3.16575 -1.60532 -4.48916 
H -2.29227 -3.95403 -4.50396 
H -0.71787 -3.36647 -5.04422 
H -1.77722 -2.43648 -7.11743 
H -3.35132 -3.02323 -6.57644 
H -2.47926 -5.37529 -6.59039 
H -0.905 -4.78841 -7.13098 
H -2.23637 -5.62802 -9.03858 
H -3.53483 -4.47844 -8.67476 
H -1.95184 -3.8883 -9.21834 
H -3.18788 4.81512 0.94132 
H 0.38004 -0.2056 4.52189 
H 0.27674 -1.95993 4.525 
H -0.44089 -1.08344 6.68037 
H -1.69273 -0.08786 5.93066 
H -1.81543 -1.8565 5.87692 
H 0.84417 -3.92968 1.84792 
H 2.53286 -2.57497 3.05237 
H 3.08736 -4.22957 2.79947 
H 3.73199 -2.92544 1.79737 
H 1.31274 -4.81969 -0.43813 
H 3.02565 -4.38725 -0.23782 
H 2.28121 -5.57975 0.82876 
*