!RI BP86 def2-SVP def2/J D3BJ TIGHTSCF TightOpt Grid5 FinalGrid6 freq
%maxcore 950
%pal nprocs 16
end
* xyz 0 1 
O 3.85985 0.41524 0.42841 
C 4.91923 0.55316 1.04455 
C 5.01188 0.97024 2.53225 
C 5.54591 -0.16922 3.4039 
C 4.28142 -0.92866 3.78822 
C 3.25892 0.1791 3.98789 
N 3.69013 1.25224 3.10093 
C 3.03768 2.43988 2.85341 
O 3.52352 3.27638 2.08012 
N 6.13851 0.2907 0.45296 
C 6.29972 -0.02727 -0.97699 
C 5.97394 -1.51062 -1.32551 
N 5.31523 -2.2091 -0.33934 
C 4.68657 -3.51355 -0.55606 
C 3.32788 -3.32729 -1.27983 
N 2.7638 -2.0734 -1.18216 
C 1.5366 -1.6795 -1.86524 
C 0.27639 -2.12044 -1.09332 
C -1.00713 -1.37223 -1.4761 
C -0.90043 0.09443 -1.11288 
N -1.08914 0.36627 0.21965 
C -0.93167 1.69683 0.80697 
C -0.04486 1.53223 2.05754 
N 0.66875 2.65347 2.4091 
C 1.6493 2.66259 3.49324 
C 1.62455 4.0029 4.21695 
O -0.00958 0.48724 2.7117 
C -2.28111 2.30146 1.21793 
C -3.22436 2.6405 0.0465 
C -2.66974 3.75649 -0.84006 
C -4.59375 3.05544 0.59171 
O -0.66526 0.97937 -1.93471 
C -1.40023 -1.56553 -2.93219 
C -2.86542 -1.84311 -3.22225 
C -3.75448 -0.66155 -2.84574 
C -5.19394 -0.87775 -3.3143 
C -6.1668 0.19139 -2.8088 
C -5.84485 1.5995 -3.31299 
C -6.9323 2.59488 -2.90271 
C -6.58592 4.0144 -3.35408 
C -7.66389 5.01107 -2.92962 
C -7.32075 6.42435 -3.37262 
O -0.59249 -1.48696 -3.86573 
O 0.04236 -3.53763 -1.24252 
O 2.72235 -4.25622 -1.82057 
C 4.49419 -4.21657 0.79212 
C 4.17103 -5.69752 0.65525 
O 6.17475 -2.00657 -2.4352 
C 7.69513 0.42916 -1.4662 
C 7.75025 0.61929 -2.98452 
C 8.82443 -0.49698 -1.0048 
H 5.64649 1.8618 2.59357 
H 6.0108 0.24304 4.308 
H 6.27573 -0.81725 2.91105 
H 3.97313 -1.58022 2.96179 
H 4.40932 -1.54796 4.68021 
H 2.24791 -0.15138 3.74351 
H 3.27589 0.56207 5.01388 
H 6.97769 0.35491 1.02276 
H 5.53425 0.56214 -1.49979 
H 5.17761 -1.75186 0.55478 
H 5.33798 -4.09646 -1.21734 
H 3.27232 -1.36021 -0.65606 
H 1.56731 -2.13475 -2.86005 
H 1.58862 -0.59197 -1.96523 
H 0.46288 -1.96592 -0.02266 
H -1.82109 -1.80987 -0.881 
H -1.24054 -0.39978 0.87343 
H -0.40408 2.34649 0.10146 
H 0.66824 3.44915 1.77581 
H 1.40301 1.87515 4.20775 
H 0.64234 4.18143 4.66752 
H 2.37807 4.02863 5.01117 
H 1.83065 4.83569 3.53498 
H -2.1076 3.20977 1.81054 
H -2.7905 1.59765 1.89093 
H -3.37192 1.7477 -0.5719 
H -1.73906 3.45788 -1.3296 
H -3.38251 4.01274 -1.63116 
H -2.47184 4.66342 -0.25873 
H -5.03976 2.24624 1.17952 
H -4.51527 3.93909 1.23426 
H -5.28296 3.29241 -0.22476 
H -3.16052 -2.74963 -2.68238 
H -2.96016 -2.06115 -4.29276 
H -3.34668 0.25405 -3.28945 
H -3.74336 -0.52078 -1.75879 
H -5.54606 -1.85429 -2.95923 
H -5.22326 -0.9111 -4.41024 
H -6.17617 0.18778 -1.71184 
H -7.17727 -0.08632 -3.13349 
H -5.75109 1.58943 -4.40549 
H -4.88293 1.93072 -2.90588 
H -7.05786 2.5752 -1.81362 
H -7.89081 2.29317 -3.34235 
H -6.47295 4.03592 -4.44483 
H -5.62229 4.3124 -2.92377 
H -7.77814 4.99409 -1.83945 
H -8.62911 4.72267 -3.36186 
H -8.10459 7.12079 -3.05883 
H -6.37544 6.75527 -2.9307 
H -7.23029 6.48297 -4.46198 
H 0.92901 -3.95374 -1.34509 
H 3.69854 -3.72686 1.3674 
H 5.41261 -4.12314 1.38577 
H 4.1312 -6.16504 1.64444 
H 3.20077 -5.85582 0.17645 
H 4.93655 -6.21441 0.06804 
H 7.89053 1.41758 -1.02645 
H 6.94194 1.27415 -3.32607 
H 8.6981 1.08555 -3.27553 
H 7.67457 -0.3289 -3.52381 
H 8.81725 -0.62365 0.08223 
H 8.75087 -1.48825 -1.46332 
H 9.79837 -0.07811 -1.28095 
*