!RI BP86 def2-SVP def2/J D3BJ TIGHTSCF TightOpt Grid5 FinalGrid6 freq
%maxcore 950
%pal nprocs 16
end
* xyz 0 1 
O 5.56949 -2.96401 0.43371 
C 5.33521 -1.93014 1.06144 
C 6.16469 -0.64341 0.88025 
C 7.51817 -0.81843 1.57947 
C 7.85603 0.57538 2.08901 
C 6.50049 1.13283 2.48454 
N 5.59039 0.56796 1.4971 
C 4.41956 1.12287 1.02482 
O 3.73073 0.50307 0.20197 
N 4.38595 -1.87163 2.05436 
C 3.54883 -3.00836 2.43635 
C 2.34494 -3.20709 1.47971 
N 1.98984 -2.11614 0.71026 
C 0.74875 -2.10335 -0.07203 
C 0.78217 -1.24289 -1.35781 
N 1.54857 -0.09854 -1.34746 
C 1.64338 0.78365 -2.50595 
C 1.03412 2.18939 -2.31484 
C -0.43415 2.16317 -1.83158 
C -0.62174 2.6993 -0.42213 
N 0.06668 2.01226 0.54618 
C 0.16878 2.44655 1.94555 
C 1.65004 2.28344 2.37606 
N 2.55176 2.6398 1.39477 
C 4.00004 2.51639 1.54049 
C 4.69559 3.60411 0.73182 
O 2.01456 1.98945 3.51397 
C -0.8104 1.66003 2.82921 
C -1.51581 2.51652 3.9017 
C -2.56446 1.67144 4.63059 
C -0.54957 3.12303 4.91797 
O -1.34228 3.65986 -0.15077 
C -1.33656 2.90279 -2.81024 
C -2.77371 2.42494 -2.90939 
C -2.88544 1.26187 -3.8889 
C -4.32416 0.75205 -3.98453 
C -4.43084 -0.42199 -4.9601 
C -5.86713 -0.9088 -5.17214 
C -6.48963 -1.53005 -3.91972 
C -7.8767 -2.10431 -4.21725 
C -8.5024 -2.72221 -2.96699 
C -9.88049 -3.29441 -3.25841 
O -0.94556 3.85122 -3.5014 
O 1.89557 2.9653 -1.45764 
O 0.03262 -1.49392 -2.30879 
C -0.41066 -1.67708 0.84441 
C -1.78571 -1.7522 0.19707 
O 1.67401 -4.24284 1.48217 
C 3.11555 -2.86905 3.91624 
C 2.61467 -4.19456 4.49636 
C 2.07231 -1.77058 4.14654 
H 6.27872 -0.45061 -0.19277 
H 8.28309 -1.20855 0.90077 
H 7.44364 -1.51258 2.42614 
H 8.56724 0.56487 2.91933 
H 8.28499 1.17166 1.27461 
H 6.18851 0.75983 3.4663 
H 6.48908 2.22314 2.5015 
H 4.25479 -0.9799 2.52368 
H 4.1717 -3.90563 2.32672 
H 2.59223 -1.29574 0.74717 
H 0.5713 -3.1322 -0.41145 
H 2.23613 0.05085 -0.6069 
H 1.17817 0.30292 -3.37317 
H 2.71496 0.87863 -2.71624 
H 1.11333 2.66092 -3.30174 
H -0.79564 1.12873 -1.83316 
H 0.63909 1.22301 0.25529 
H -0.05562 3.51925 1.97818 
H 2.18856 2.78698 0.44904 
H 4.24829 2.6053 2.60232 
H 4.38291 4.59782 1.06992 
H 5.78423 3.54185 0.8165 
H 4.45039 3.52408 -0.33335 
H -0.30389 0.81174 3.30719 
H -1.59496 1.22476 2.19503 
H -2.04176 3.33812 3.39856 
H -3.29868 1.26769 3.92536 
H -2.10072 0.82992 5.15661 
H -3.10757 2.27389 5.36648 
H 0.148 3.8173 4.44025 
H -1.09556 3.6888 5.68086 
H 0.02956 2.34632 5.42832 
H -3.39277 3.26831 -3.2365 
H -3.12556 2.14017 -1.91184 
H -2.22648 0.44257 -3.57693 
H -2.53615 1.58167 -4.87861 
H -4.98128 1.56585 -4.31386 
H -4.66018 0.4443 -2.98811 
H -3.80894 -1.25419 -4.60827 
H -4.02689 -0.1159 -5.93317 
H -5.85862 -1.65601 -5.97548 
H -6.48995 -0.07657 -5.52208 
H -6.57716 -0.77597 -3.12971 
H -5.83697 -2.32552 -3.54034 
H -7.79893 -2.86559 -5.00304 
H -8.5286 -1.30973 -4.60034 
H -8.587 -1.9645 -2.17932 
H -7.85598 -3.51957 -2.5822 
H -10.30929 -3.73093 -2.35094 
H -10.56148 -2.51505 -3.61505 
H -9.82655 -4.07886 -4.02002 
H 1.66818 3.90248 -1.64089 
H -0.24092 -0.66109 1.20923 
H -0.42448 -2.32003 1.7333 
H -2.56151 -1.55919 0.94526 
H -1.90108 -1.00305 -0.5916 
H -1.96655 -2.74314 -0.23064 
H 4.00809 -2.59173 4.49482 
H 3.34664 -4.99304 4.33683 
H 2.45495 -4.10288 5.57637 
H 1.66518 -4.50425 4.04962 
H 2.40771 -0.80873 3.74849 
H 1.11378 -2.01747 3.68018 
H 1.89019 -1.6365 5.21852 
*