!RI BP86 def2-SVP def2/J D3BJ TIGHTSCF TightOpt Grid5 FinalGrid6 freq
%maxcore 950
%pal nprocs 16
end
* xyz 0 1 
O 7.2797 -1.26821 2.63605 
C 6.48987 -0.37729 2.32438 
C 6.30291 0.93864 3.12175 
C 7.00662 0.89301 4.47747 
C 5.96093 0.24512 5.37866 
C 4.65386 0.84712 4.8827 
N 4.88914 1.16824 3.47785 
C 3.96486 1.69494 2.59517 
O 4.26501 1.88564 1.40834 
N 5.74748 -0.43058 1.16978 
C 5.6974 -1.57644 0.26085 
C 5.03922 -1.15097 -1.07386 
N 3.97366 -0.28221 -0.96372 
C 3.30214 0.33165 -2.11363 
C 2.50819 -0.70109 -2.95153 
N 1.99686 -1.74353 -2.20748 
C 1.14324 -2.79207 -2.73237 
C -0.34557 -2.40204 -2.8484 
C -0.94213 -1.8726 -1.53384 
C -0.56114 -0.44265 -1.18157 
N -0.67673 -0.14183 0.15683 
C -0.29211 1.14364 0.74508 
C 0.87371 0.90129 1.73619 
N 1.56381 2.04038 2.08385 
C 2.57197 2.07924 3.14462 
C 2.62593 3.482 3.7412 
O 1.12808 -0.20008 2.22744 
C -1.4637 1.7878 1.51156 
C -2.44513 2.65034 0.69248 
C -3.20063 1.86071 -0.37014 
C -1.77009 3.87417 0.07213 
O -0.20075 0.39657 -2.00685 
C -2.45063 -2.05171 -1.54365 
C -3.26138 -1.29394 -2.58461 
C -4.74068 -1.20642 -2.21157 
C -5.49585 -0.2776 -3.16348 
C -6.98277 -0.20372 -2.80817 
C -7.77333 0.73938 -3.72305 
C -8.02231 2.13429 -3.13635 
C -6.7822 2.98719 -2.86511 
C -6.01613 3.36388 -4.13353 
C -4.80675 4.22898 -3.81241 
O -2.99239 -2.82125 -0.73776 
O -0.54823 -1.51076 -3.95662 
O 2.20328 -0.53843 -4.13363 
C 4.22969 1.18716 -2.98552 
C 4.88974 2.31823 -2.20813 
O 5.36804 -1.64296 -2.15538 
C 5.02084 -2.80894 0.91308 
C 4.95693 -4.00258 -0.0435 
C 3.6332 -2.52844 1.49718 
H 6.67118 1.76253 2.49983 
H 7.20469 1.91382 4.8275 
H 7.95331 0.34574 4.47634 
H 5.95606 -0.84102 5.22816 
H 6.13468 0.43918 6.44072 
H 3.81466 0.1531 4.9824 
H 4.42128 1.77158 5.41845 
H 5.27108 0.43212 0.90217 
H 6.74019 -1.82797 0.0269 
H 3.67558 0.01936 -0.03943 
H 2.54075 0.98983 -1.67418 
H 2.279 -1.78392 -1.23197 
H 1.25324 -3.64908 -2.05946 
H 1.52905 -3.07291 -3.71881 
H -0.88127 -3.31851 -3.12726 
H -0.57197 -2.51634 -0.72243 
H -0.89748 -0.88899 0.81193 
H 0.08612 1.80561 -0.03965 
H 1.41323 2.88592 1.54013 
H 2.26621 1.36094 3.91057 
H 1.64792 3.77053 4.14144 
H 3.35872 3.55474 4.54932 
H 2.90401 4.22223 2.98181 
H -1.07204 2.42984 2.31203 
H -2.03394 1.00239 2.02681 
H -3.19343 3.02374 1.40498 
H -3.62289 0.94258 0.04928 
H -4.02902 2.45584 -0.76845 
H -2.55635 1.59945 -1.21255 
H -1.07355 3.59788 -0.72535 
H -2.51955 4.54371 -0.36409 
H -1.21748 4.44089 0.82867 
H -3.15362 -1.80733 -3.54559 
H -2.85121 -0.28498 -2.68378 
H -4.84583 -0.84124 -1.18283 
H -5.18576 -2.20879 -2.2367 
H -5.38401 -0.63846 -4.19322 
H -5.04305 0.71714 -3.12197 
H -7.11313 0.08042 -1.75734 
H -7.40311 -1.21244 -2.91191 
H -8.76079 0.2886 -3.88902 
H -7.3078 0.81036 -4.71218 
H -8.57667 2.02377 -2.19566 
H -8.68628 2.68198 -3.81706 
H -6.1222 2.47692 -2.15622 
H -7.1078 3.90892 -2.36594 
H -6.67742 3.90947 -4.81662 
H -5.67569 2.46772 -4.66172 
H -4.27734 4.49637 -4.73226 
H -5.10741 5.15498 -3.31206 
H -4.10647 3.69707 -3.16043 
H 0.08893 -0.77101 -3.82617 
H 3.65353 1.62615 -3.80943 
H 5.00542 0.56932 -3.45174 
H 5.4886 2.93844 -2.88265 
H 4.13906 2.95953 -1.73534 
H 5.55551 1.93398 -1.42933 
H 5.65149 -3.11942 1.75676 
H 5.94303 -4.2147 -0.46954 
H 4.62402 -4.90159 0.48668 
H 4.2557 -3.82738 -0.8658 
H 3.66387 -1.71879 2.23265 
H 2.90928 -2.26146 0.72503 
H 3.24974 -3.41708 2.01091 
*