!RI BP86 def2-SVP def2/J D3BJ TIGHTSCF TightOpt Grid5 FinalGrid6 freq
%maxcore 950
%pal nprocs 16
end
* xyz 0 1 
O 3.33673 -2.52077 3.42629 
C 2.35394 -1.85436 3.09875 
C 1.54861 -1.00381 4.11201 
C 0.62318 -1.88226 4.9521 
C -0.68451 -1.88105 4.16721 
C -0.75368 -0.472 3.59816 
N 0.63867 -0.06597 3.43796 
C 1.12142 1.07705 2.8306 
O 2.31975 1.37226 2.91548 
N 1.82055 -1.89686 1.83115 
C 2.46429 -2.51712 0.67985 
C 2.87325 -1.39882 -0.30991 
N 3.89646 -1.74828 -1.16307 
C 4.34318 -0.88792 -2.25983 
C 3.38151 -1.13132 -3.44359 
N 3.14009 -0.02149 -4.21998 
C 2.12167 0.02346 -5.2554 
C 1.2626 1.30629 -5.20277 
C 0.78819 1.65417 -3.77772 
C 1.79531 2.45946 -2.96881 
N 1.34342 2.93616 -1.76199 
C 2.2114 3.60709 -0.78337 
C 1.55158 3.51057 0.61908 
N 0.78944 2.37252 0.78418 
C 0.12799 1.92764 2.0125 
C -0.48832 3.02926 2.86149 
O 1.76682 4.30995 1.52824 
C 2.4626 5.06777 -1.19269 
C 3.74505 5.68554 -0.59708 
C 3.75513 7.1962 -0.84815 
C 5.01193 5.06248 -1.18892 
O 2.97217 2.60255 -3.31572 
C -0.58287 2.29962 -3.85279 
C -1.77454 1.40622 -3.54998 
C -1.8776 1.12608 -2.05222 
C -2.94823 0.08149 -1.7397 
C -2.93491 -0.28298 -0.25375 
C -3.95942 -1.37127 0.06844 
C -3.86822 -1.79554 1.5349 
C -4.90182 -2.869 1.87556 
C -4.78792 -3.30009 3.33778 
C -5.81255 -4.36794 3.68533 
O -0.74318 3.49416 -4.12582 
O 1.97138 2.3898 -5.83313 
O 2.86375 -2.22626 -3.67565 
C 5.78963 -1.2154 -2.63766 
C 6.40869 -0.19395 -3.58072 
O 2.30233 -0.3058 -0.36825 
C 1.56435 -3.56788 -0.00706 
C 0.20439 -3.01087 -0.44367 
C 1.35819 -4.78461 0.90016 
H 2.26741 -0.45171 4.72746 
H 0.45764 -1.41459 5.93038 
H 1.00475 -2.89434 5.11663 
H -0.63122 -2.61382 3.35323 
H -1.55299 -2.12631 4.78485 
H -1.28986 -0.44205 2.64825 
H -1.22702 0.22186 4.30019 
H 1.03589 -1.2796 1.64178 
H 3.39047 -2.99994 1.01614 
H 4.22319 -2.71075 -1.1587 
H 4.25628 0.15397 -1.9294 
H 3.65279 0.83763 -4.0151 
H 1.47039 -0.85127 -5.15438 
H 2.64707 -0.04374 -6.21384 
H 0.39472 1.12612 -5.84908 
H 0.65595 0.71501 -3.22457 
H 0.35285 2.88875 -1.53969 
H 3.14243 3.03305 -0.74261 
H 0.90254 1.6627 0.06033 
H -0.67845 1.28931 1.64313 
H -1.08844 3.71045 2.24954 
H -1.13942 2.60263 3.6316 
H 0.27231 3.61599 3.38634 
H 1.59525 5.67225 -0.89446 
H 2.51845 5.14884 -2.28637 
H 3.76125 5.52935 0.48724 
H 2.87975 7.67189 -0.39336 
H 4.64756 7.65767 -0.41214 
H 3.74593 7.42166 -1.92004 
H 5.09655 4.00213 -0.93516 
H 5.02625 5.1527 -2.28044 
H 5.90641 5.56021 -0.7987 
H -1.6611 0.47982 -4.1242 
H -2.68369 1.8997 -3.9115 
H -2.0986 2.05928 -1.51916 
H -0.91542 0.77308 -1.664 
H -2.76526 -0.82075 -2.33595 
H -3.93552 0.46483 -2.02316 
H -3.14359 0.61022 0.34769 
H -1.93329 -0.63107 0.02633 
H -3.78639 -2.24331 -0.5739 
H -4.96849 -1.00201 -0.15053 
H -4.01736 -0.92238 2.18166 
H -2.86274 -2.18268 1.73882 
H -4.7574 -3.73913 1.22363 
H -5.91019 -2.48347 1.68215 
H -4.93381 -2.43415 3.994 
H -3.78203 -3.68947 3.53402 
H -5.71294 -4.66138 4.73504 
H -6.83153 -3.99896 3.5309 
H -5.67297 -5.26122 3.06816 
H 2.74857 2.5757 -5.26003 
H 5.84828 -2.20974 -3.09772 
H 6.40054 -1.25592 -1.72693 
H 7.46706 -0.42406 -3.7403 
H 5.9182 -0.20225 -4.55833 
H 6.34102 0.81683 -3.1661 
H 2.07613 -3.91915 -0.91275 
H 0.31985 -2.15697 -1.11843 
H -0.36743 -3.77594 -0.9803 
H -0.39735 -2.69191 0.41358 
H 2.31995 -5.2173 1.19507 
H 0.80961 -4.52123 1.81068 
H 0.78925 -5.56252 0.37974 
*