!RI BP86 def2-SVP def2/J D3BJ TIGHTSCF TightOpt Grid5 FinalGrid6 freq
%maxcore 950
%pal nprocs 16
end
* xyz 0 1 
O 7.0587 -0.56197 1.02391 
C 6.11884 -0.09191 1.66807 
C 6.27258 1.15491 2.57019 
C 7.06671 0.8091 3.82919 
C 5.98769 0.39569 4.82381 
C 4.83069 1.32989 4.50165 
N 4.99621 1.66446 3.09113 
C 4.16721 2.45624 2.32283 
O 4.46284 2.73383 1.15388 
N 4.88258 -0.6934 1.70413 
C 4.52148 -1.84259 0.87455 
C 4.065 -1.2481 -0.47963 
N 4.38062 -2.00084 -1.59217 
C 4.1837 -1.47852 -2.9534 
C 2.67722 -1.26852 -3.23428 
N 1.855 -2.23423 -2.69888 
C 0.40738 -2.10721 -2.61571 
C -0.04001 -2.25716 -1.145 
C -1.31002 -1.49195 -0.7555 
C -0.96473 -0.01868 -0.68579 
N -0.51351 0.40306 0.54058 
C -0.0928 1.7741 0.83811 
C 1.07203 1.69723 1.85352 
N 1.77586 2.86943 2.01547 
C 2.87296 2.99063 2.97204 
C 3.0765 4.44156 3.38467 
O 1.3334 0.67904 2.50051 
C -1.24074 2.5961 1.45403 
C -2.40007 2.94047 0.49804 
C -1.96376 3.88428 -0.62365 
C -3.54811 3.58074 1.28436 
O -1.06637 0.73808 -1.65005 
C -2.50611 -1.77391 -1.64872 
C -3.82263 -1.11732 -1.24705 
C -4.84823 -1.05426 -2.37788 
C -4.48752 -0.09181 -3.51614 
C -4.33722 1.38002 -3.12501 
C -5.53484 2.04036 -2.43395 
C -6.76197 2.24897 -3.32848 
C -7.77502 1.10416 -3.26347 
C -9.01679 1.41644 -4.10042 
C -10.0282 0.28272 -4.04058 
O -2.45322 -2.58544 -2.58074 
O -0.1727 -3.65675 -0.81622 
O 2.25526 -0.36915 -3.96299 
C 4.79908 -2.43956 -3.97634 
C 4.85483 -1.85489 -5.38061 
O 3.43719 -0.18921 -0.56885 
C 3.40403 -2.68361 1.53137 
C 3.1573 -3.98972 0.77 
C 3.73397 -3.02539 2.99067 
H 6.76722 1.92975 1.97382 
H 7.57907 1.70458 4.20189 
H 7.81382 0.02376 3.6809 
H 5.69362 -0.64479 4.64249 
H 6.31388 0.47676 5.86442 
H 3.8625 0.85265 4.67579 
H 4.88607 2.25786 5.08015 
H 4.12858 -0.17993 2.15494 
H 5.42033 -2.45034 0.7162 
H 4.93881 -2.84103 -1.46733 
H 4.6718 -0.49719 -2.993 
H 2.29549 -3.02103 -2.22822 
H 0.00062 -2.90652 -3.24254 
H 0.1141 -1.14053 -3.03207 
H 0.77272 -1.89874 -0.49976 
H -1.61707 -1.83274 0.24325 
H -0.386 -0.27598 1.28936 
H 0.28939 2.238 -0.07685 
H 1.62509 3.62825 1.35629 
H 2.60315 2.40188 3.85133 
H 2.16668 4.84782 3.83923 
H 3.89315 4.53236 4.10842 
H 3.32605 5.07045 2.52244 
H -0.84363 3.5326 1.8676 
H -1.64289 2.03965 2.31231 
H -2.78949 2.02065 0.05033 
H -1.20712 3.42678 -1.26638 
H -2.81487 4.14636 -1.26153 
H -1.54751 4.81353 -0.21995 
H -3.90782 2.90471 2.06728 
H -3.23235 4.51511 1.76082 
H -4.39364 3.80459 0.62506 
H -3.63747 -0.11763 -0.84815 
H -4.23135 -1.71977 -0.42705 
H -5.81787 -0.77437 -1.95238 
H -4.98523 -2.05558 -2.8048 
H -5.24244 -0.17884 -4.30533 
H -3.54684 -0.41892 -3.97633 
H -4.08994 1.95236 -4.02829 
H -3.46785 1.48552 -2.46775 
H -5.19686 3.03518 -2.11362 
H -5.80264 1.50943 -1.51416 
H -6.45401 2.42677 -4.3656 
H -7.26768 3.16412 -2.99364 
H -8.07117 0.93488 -2.2211 
H -7.32759 0.17508 -3.62637 
H -8.72866 1.58658 -5.14434 
H -9.48844 2.33768 -3.73914 
H -10.90744 0.52689 -4.6449 
H -9.59841 -0.64725 -4.42634 
H -10.36053 0.10742 -3.0124 
H -0.8634 -4.0069 -1.42009 
H 4.23995 -3.38311 -4.0016 
H 5.82211 -2.69128 -3.66923 
H 5.36878 -2.5471 -6.05529 
H 3.85246 -1.68196 -5.78318 
H 5.40048 -0.90606 -5.38956 
H 2.46888 -2.10794 1.52665 
H 2.80538 -3.80132 -0.24587 
H 4.07007 -4.59198 0.70864 
H 2.38916 -4.59129 1.26825 
H 3.78438 -2.1249 3.61082 
H 2.96125 -3.6697 3.42413 
H 4.69322 -3.54854 3.06751 
*