!RI BP86 def2-SVP def2/J D3BJ TIGHTSCF TightOpt Grid5 FinalGrid6 freq
%maxcore 950
%pal nprocs 16
end
* xyz 0 1 
O 5.03745 0.81381 -0.07869 
C 4.57086 0.64811 1.05083 
C 3.32776 1.41878 1.56194 
C 3.5374 2.92027 1.34692 
C 4.2726 3.3389 2.61647 
C 3.59509 2.51024 3.69676 
N 3.09013 1.32436 3.01542 
C 2.33439 0.39217 3.70112 
O 2.1422 0.52565 4.91628 
N 5.07624 -0.30835 1.90588 
C 6.24695 -1.12829 1.55095 
C 5.88817 -2.11487 0.40577 
N 4.57786 -2.53164 0.40861 
C 3.92388 -3.18564 -0.7199 
C 2.95312 -2.1451 -1.3203 
N 2.56174 -2.38515 -2.6178 
C 1.57478 -1.54894 -3.29262 
C 0.1451 -2.05489 -3.02007 
C -0.95283 -0.98111 -3.06996 
C -0.87977 -0.15668 -1.79801 
N -1.53162 -0.71733 -0.72304 
C -1.40686 -0.20081 0.64521 
C -0.22115 -0.95567 1.289 
N 0.47393 -0.24349 2.23923 
C 1.67417 -0.75346 2.90049 
C 1.34593 -1.91536 3.83828 
O 0.0634 -2.12029 0.99669 
C -2.71234 -0.44827 1.41258 
C -2.78934 0.16882 2.82322 
C -2.68535 1.6943 2.804 
C -4.10205 -0.248 3.49401 
O -0.27689 0.91263 -1.71808 
C -0.95331 -0.10575 -4.31445 
C -2.20628 0.71999 -4.56258 
C -1.91272 2.21287 -4.46165 
C -3.10057 3.09517 -4.85424 
C -4.39428 2.86183 -4.06806 
C -4.2372 3.04527 -2.55706 
C -5.5853 2.91298 -1.84478 
C -5.43507 3.06741 -0.33082 
C -6.78751 2.96281 0.37371 
C -6.64951 3.13061 1.87822 
O -0.00904 -0.04612 -5.10967 
O -0.15152 -3.13122 -3.93638 
O 2.51789 -1.18651 -0.67563 
C 3.14348 -4.42464 -0.27717 
C 4.05776 -5.5501 0.18466 
O 6.72256 -2.56872 -0.3778 
C 6.82313 -1.83221 2.79924 
C 8.20129 -2.43701 2.51875 
C 5.89666 -2.89836 3.39161 
H 2.4625 1.05218 1.00425 
H 2.56671 3.42962 1.3017 
H 4.09872 3.17393 0.44322 
H 5.33278 3.06854 2.54295 
H 4.20933 4.41311 2.8109 
H 4.27835 2.2217 4.50141 
H 2.74314 3.04385 4.13316 
H 4.74022 -0.30859 2.8645 
H 6.99403 -0.4356 1.14191 
H 3.96904 -2.08734 1.08961 
H 4.66763 -3.44216 -1.48282 
H 2.90631 -3.21063 -3.10153 
H 1.81949 -1.6034 -4.358 
H 1.71256 -0.52096 -2.94412 
H 0.12958 -2.51825 -2.02458 
H -1.91908 -1.5051 -3.08804 
H -1.91369 -1.65482 -0.81889 
H -1.17102 0.86611 0.58897 
H 0.18614 0.70973 2.44421 
H 2.36067 -1.10986 2.13048 
H 0.97336 -2.78438 3.28771 
H 2.23643 -2.23061 4.39295 
H 0.57718 -1.63432 4.5672 
H -2.87258 -1.53227 1.49647 
H -3.55064 -0.06672 0.81329 
H -1.97262 -0.22623 3.43786 
H -1.70932 2.02817 2.44168 
H -3.45367 2.1368 2.16275 
H -2.81218 2.10388 3.81204 
H -4.17171 -1.33852 3.56728 
H -4.1674 0.15792 4.50909 
H -4.96935 0.10934 2.9289 
H -2.97763 0.4247 -3.84441 
H -2.58015 0.45906 -5.55923 
H -1.0682 2.46526 -5.11548 
H -1.58453 2.46258 -3.44679 
H -3.31388 2.94746 -5.92034 
H -2.80256 4.14528 -4.74356 
H -4.78483 1.85982 -4.28082 
H -5.14742 3.5683 -4.43953 
H -3.80636 4.03184 -2.34846 
H -3.5453 2.29605 -2.15597 
H -6.02609 1.93433 -2.07074 
H -6.2767 3.67475 -2.2252 
H -4.9754 4.03678 -0.10302 
H -4.7608 2.29135 0.05021 
H -7.24414 1.98929 0.16051 
H -7.46777 3.73141 -0.01135 
H -7.63063 3.06302 2.35856 
H -6.01041 2.35089 2.30287 
H -6.21563 4.10434 2.12685 
H -0.97006 -3.55572 -3.60672 
H 2.52759 -4.79424 -1.10598 
H 2.45115 -4.16714 0.5345 
H 3.46511 -6.4295 0.45594 
H 4.75222 -5.84133 -0.60979 
H 4.64152 -5.25602 1.06176 
H 6.96356 -1.06399 3.57248 
H 8.88155 -1.68461 2.10632 
H 8.64898 -2.81767 3.44327 
H 8.14297 -3.2706 1.8118 
H 4.9027 -2.49382 3.60573 
H 5.78192 -3.75372 2.71898 
H 6.30631 -3.2768 4.3347 
*