!RI BP86 def2-SVP def2/J D3BJ TIGHTSCF TightOpt Grid5 FinalGrid6 freq
%maxcore 950
%pal nprocs 16
end
* xyz 0 1 
O 6.54095 0.05465 2.34675 
C 6.2156 -0.49734 1.28724 
C 5.92083 0.30689 0.00124 
C 7.20276 0.91984 -0.55981 
C 7.30287 2.26455 0.15724 
C 5.85253 2.70414 0.30273 
N 5.08486 1.46668 0.32341 
C 3.73663 1.31455 0.53985 
O 3.21745 0.194 0.45577 
N 6.14464 -1.85957 1.28972 
C 5.62729 -2.77486 0.25404 
C 4.11919 -3.0835 0.47549 
N 3.64376 -2.78998 1.73406 
C 2.29014 -3.11492 2.17921 
C 1.35308 -1.96 1.76826 
N 0.80448 -2.09547 0.51032 
C -0.07445 -1.08901 -0.06563 
C -1.46048 -1.08087 0.60997 
C -2.20896 0.24768 0.47737 
C -1.67714 1.43504 1.27564 
N -0.77693 1.20625 2.28826 
C -0.23417 2.30128 3.11136 
C 0.93526 2.98106 2.36321 
N 1.73764 2.12825 1.64384 
C 2.88662 2.56039 0.84926 
C 2.42536 3.20217 -0.45444 
O 1.20908 4.17518 2.49841 
C 0.22584 1.74812 4.46843 
C 0.68986 2.80624 5.48954 
C 1.18786 2.11061 6.76003 
C -0.41531 3.80042 5.84715 
O -2.09085 2.57891 1.05308 
C -2.35314 0.61905 -0.99228 
C -3.72888 0.41186 -1.60769 
C -3.76234 0.75492 -3.09526 
C -5.15461 0.53129 -3.6865 
C -5.18808 0.87525 -5.17648 
C -6.58081 0.6515 -5.76793 
C -6.61432 0.99554 -7.25795 
C -8.00705 0.77193 -7.84944 
C -8.04047 1.11582 -9.33834 
C -9.42337 0.89493 -9.93021 
O -1.40335 1.06451 -1.64776 
O -2.24882 -2.15769 0.05408 
O 1.14552 -0.95862 2.45886 
C 2.28208 -3.33404 3.69572 
C 0.94953 -3.87176 4.19868 
O 3.41886 -3.64506 -0.36917 
C 6.49051 -4.06087 0.21279 
C 6.29006 -4.83829 -1.09178 
C 6.27012 -4.99058 1.41082 
H 5.40667 -0.29763 -0.74621 
H 7.08946 1.09323 -1.63699 
H 8.09045 0.2994 -0.40424 
H 7.7567 2.12978 1.14582 
H 7.90726 2.99293 -0.39083 
H 5.68152 3.28483 1.21286 
H 5.52968 3.29097 -0.56247 
H 6.37932 -2.27645 2.18528 
H 5.70638 -2.27377 -0.71373 
H 4.21214 -2.18188 2.31753 
H 1.97026 -4.03338 1.67234 
H 1.10372 -2.87965 -0.06783 
H -0.15785 -1.32907 -1.13077 
H 0.42926 -0.1245 0.04145 
H -1.36025 -1.33029 1.672 
H -3.22568 0.0928 0.86601 
H -0.34625 0.29118 2.41829 
H -1.02849 3.0441 3.23553 
H 1.52351 1.12985 1.65972 
H 3.45556 3.27622 1.44875 
H 1.81098 4.08807 -0.2631 
H 3.27304 3.50721 -1.0746 
H 1.82094 2.50316 -1.0445 
H 1.0486 1.03874 4.30778 
H -0.59413 1.16359 4.90783 
H 1.53463 3.3659 5.071 
H 2.00824 1.42221 6.53079 
H 1.56107 2.84277 7.48402 
H 0.38725 1.53728 7.23979 
H -0.69428 4.4143 4.98574 
H -1.31264 3.28477 6.20539 
H -0.08207 4.48451 6.6352 
H -4.43827 1.0451 -1.06334 
H -4.01306 -0.6359 -1.46341 
H -3.02956 0.13966 -3.63218 
H -3.46337 1.80058 -3.23996 
H -5.88494 1.14939 -3.15025 
H -5.45023 -0.51533 -3.54442 
H -4.45765 0.2572 -5.71265 
H -4.89244 1.92186 -5.3186 
H -7.31122 1.26954 -5.23172 
H -6.87643 -0.39511 -5.62584 
H -5.88394 0.37747 -7.79417 
H -6.31862 2.04215 -7.40003 
H -8.73761 1.38981 -7.31319 
H -8.30298 -0.27465 -7.70737 
H -7.31477 0.49785 -9.8798 
H -7.74938 2.16239 -9.48556 
H -9.42449 1.14698 -10.99528 
H -9.73137 -0.15056 -9.82818 
H -10.16842 1.52316 -9.43164 
H -3.01198 -2.27716 0.65667 
H 2.51749 -2.40123 4.22311 
H 3.06963 -4.0496 3.9641 
H 0.99976 -4.05234 5.27715 
H 0.13596 -3.16337 4.01513 
H 0.69917 -4.81806 3.70865 
H 7.54468 -3.75062 0.23392 
H 6.45168 -4.19231 -1.96099 
H 7.00467 -5.66607 -1.15784 
H 5.285 -5.26461 -1.16337 
H 6.43674 -4.47106 2.35908 
H 5.25711 -5.40585 1.42176 
H 6.96957 -5.83309 1.37281 
*