!RI BP86 def2-SVP def2/J D3BJ TIGHTSCF TightOpt Grid5 FinalGrid6 freq
%maxcore 950
%pal nprocs 16
end
* xyz 0 1 
O 7.0386 -0.23119 2.00686 
C 5.9584 0.29399 2.28514 
C 5.44379 0.45416 3.74205 
C 6.10586 -0.58548 4.66232 
C 4.97769 -1.0883 5.55401 
C 3.76472 -1.0172 4.64559 
N 3.99602 0.19833 3.88141 
C 3.03779 1.10255 3.47707 
O 3.37126 2.20395 3.01801 
N 5.18267 0.89111 1.31627 
C 5.45543 0.82375 -0.12247 
C 5.31555 -0.65985 -0.56094 
N 4.15982 -1.26961 -0.10992 
C 3.83108 -2.66361 -0.41269 
C 3.2384 -2.77995 -1.83397 
N 2.57346 -1.66127 -2.29414 
C 2.05489 -1.58746 -3.64419 
C 1.04369 -0.46028 -3.88901 
C -0.27147 -0.64031 -3.11827 
C -0.226 -0.35003 -1.62608 
N 0.31959 0.85745 -1.26661 
C 0.16915 1.49448 0.0465 
C 0.97837 0.74852 1.13877 
N 0.85042 1.25595 2.41333 
C 1.55554 0.68396 3.56083 
C 0.94368 1.1819 4.86252 
O 1.76372 -0.17137 0.89421 
C -1.31111 1.70918 0.42961 
C -2.13162 2.52543 -0.59205 
C -3.60839 2.53159 -0.18865 
C -1.62633 3.96234 -0.72652 
O -0.74573 -1.11026 -0.80664 
C -1.37642 0.18541 -3.76556 
C -2.80624 -0.23043 -3.4459 
C -3.83658 0.76072 -3.98333 
C -5.24896 0.39324 -3.52565 
C -6.27804 1.40166 -4.03917 
C -7.71934 1.05286 -3.65432 
C -8.00216 0.94491 -2.15221 
C -7.6908 2.22754 -1.37871 
C -8.0617 2.08888 0.09811 
C -7.738 3.35561 0.87424 
O -1.12568 1.14443 -4.5064 
O 1.65889 0.8201 -3.65148 
O 3.25683 -3.8349 -2.47284 
C 2.8514 -3.21339 0.63029 
C 2.7749 -4.7338 0.62792 
O 6.08771 -1.23524 -1.32804 
C 6.78133 1.49079 -0.55526 
C 6.80729 1.72654 -2.07272 
C 7.00472 2.83917 0.14264 
H 5.65369 1.47849 4.07038 
H 6.92516 -0.15106 5.24388 
H 6.51641 -1.43188 4.09912 
H 5.15803 -2.09485 5.94111 
H 4.85148 -0.40894 6.40577 
H 3.74325 -1.85516 3.94065 
H 2.83079 -0.99553 5.20882 
H 4.41406 1.4855 1.6235 
H 4.6199 1.35998 -0.59282 
H 3.48673 -0.71685 0.42803 
H 4.76887 -3.23198 -0.40007 
H 2.63903 -0.80998 -1.73745 
H 1.61686 -2.55586 -3.91144 
H 2.92941 -1.43356 -4.2878 
H 0.8266 -0.49166 -4.96573 
H -0.57527 -1.68976 -3.23632 
H 0.85508 1.35896 -1.97546 
H 0.65955 2.47102 -0.04723 
H 0.37774 2.14502 2.5445 
H 1.46792 -0.40449 3.48353 
H -0.11123 0.89523 4.92943 
H 1.46524 0.77642 5.73458 
H 0.99466 2.27479 4.93105 
H -1.37801 2.21491 1.40039 
H -1.79166 0.73422 0.57878 
H -2.0646 2.0507 -1.57556 
H -4.00275 1.51107 -0.13882 
H -3.75252 3.00062 0.79053 
H -4.20788 3.08324 -0.92043 
H -0.6135 3.99174 -1.13903 
H -2.26747 4.53703 -1.40379 
H -1.61639 4.47244 0.24255 
H -2.9079 -0.30389 -2.35826 
H -2.97606 -1.22234 -3.87837 
H -3.79203 0.78153 -5.07919 
H -3.59296 1.77323 -3.63816 
H -5.26888 0.36194 -2.43062 
H -5.50424 -0.61059 -3.88557 
H -6.21956 1.44636 -5.13407 
H -6.02737 2.40612 -3.67909 
H -7.9915 0.10055 -4.12637 
H -8.38483 1.81095 -4.0859 
H -7.44033 0.10658 -1.72455 
H -9.06368 0.69806 -2.02377 
H -8.24232 3.06633 -1.82012 
H -6.62416 2.46332 -1.45599 
H -7.51648 1.24734 0.54124 
H -9.1315 1.87053 0.19513 
H -8.01144 3.23527 1.92714 
H -6.66839 3.5834 0.82512 
H -8.29063 4.21215 0.47521 
H 1.09896 1.45928 -4.14857 
H 1.84586 -2.80862 0.46442 
H 3.16183 -2.88988 1.63162 
H 2.11641 -5.07723 1.43229 
H 2.37281 -5.11439 -0.31526 
H 3.76278 -5.17719 0.78781 
H 7.62418 0.8351 -0.30458 
H 6.71524 0.79298 -2.63383 
H 5.99108 2.38775 -2.38405 
H 7.75102 2.19385 -2.37485 
H 7.12605 2.71837 1.22334 
H 7.91436 3.32329 -0.22941 
H 6.16442 3.51964 -0.03294 
*