!RI BP86 def2-SVP def2/J D3BJ TIGHTSCF TightOpt Grid5 FinalGrid6 freq
%maxcore 950
%pal nprocs 16
end
* xyz 0 1 
O 4.5522 1.60598 -2.67923 
C 4.31584 1.29341 -1.51023 
C 4.47682 2.30138 -0.35681 
C 5.89641 2.19417 0.21816 
C 5.71847 2.46544 1.70542 
C 4.3705 1.8369 2.01017 
N 3.59639 2.07849 0.8001 
C 2.24604 2.3456 0.7088 
O 1.72154 2.56465 -0.39228 
N 4.0818 -0.00969 -1.12511 
C 4.0368 -1.13669 -2.06958 
C 3.55878 -2.43566 -1.37307 
N 3.9678 -2.59014 -0.06465 
C 3.89817 -3.88765 0.61144 
C 2.45381 -4.30566 0.96827 
N 1.5802 -3.26375 1.18351 
C 0.25321 -3.41736 1.75678 
C -0.90372 -3.20685 0.75559 
C -1.16871 -1.77187 0.27539 
C -1.60803 -0.86424 1.41088 
N -2.02161 0.39225 1.01848 
C -2.31501 1.47288 1.97269 
C -0.96737 1.89662 2.61599 
N 0.03676 2.08419 1.68931 
C 1.41766 2.43515 2.01056 
C 1.51962 3.85767 2.55619 
O -0.81364 2.14959 3.80971 
C -3.41679 1.10846 2.97963 
C -4.37855 2.27237 3.30398 
C -5.50677 1.77384 4.21159 
C -3.6825 3.46463 3.95883 
O -1.61537 -1.2039 2.59372 
C 0.02374 -1.21215 -0.47491 
C -0.01235 -1.27418 -1.99208 
C -0.42407 0.06237 -2.60266 
C -1.928 0.14108 -2.87604 
C -2.32247 1.51912 -3.41005 
C -3.82631 1.60236 -3.67598 
C -4.22211 2.98223 -4.20383 
C -5.72644 3.06661 -4.46717 
C -6.12208 4.44589 -4.99369 
C -7.61693 4.53403 -5.25662 
O 0.99324 -0.70618 0.10776 
O -0.75277 -4.08652 -0.37816 
O 2.14349 -5.47861 1.18635 
C 4.72428 -3.87842 1.90586 
C 6.22146 -3.77306 1.64985 
O 2.97449 -3.33896 -1.97575 
C 5.39478 -1.36496 -2.7943 
C 6.53398 -1.78188 -1.86001 
C 5.26623 -2.37299 -3.94148 
H 4.2746 3.30768 -0.7428 
H 6.58196 2.90608 -0.25232 
H 6.31794 1.19191 0.0755 
H 6.52603 2.04968 2.314 
H 5.67692 3.5474 1.87997 
H 4.45718 0.75152 2.13144 
H 3.91211 2.25897 2.90539 
H 3.68861 -0.13534 -0.19448 
H 3.27489 -0.87084 -2.81285 
H 4.55401 -1.8653 0.33806 
H 4.28361 -4.64406 -0.08375 
H 1.91657 -2.31978 0.98318 
H 0.19902 -2.73268 2.6055 
H 0.17496 -4.43318 2.16086 
H -1.81627 -3.54842 1.26143 
H -2.00952 -1.80392 -0.43006 
H -2.06106 0.6222 0.03112 
H -2.64658 2.31248 1.3489 
H -0.1617 1.85172 0.71782 
H 1.77248 1.70619 2.74493 
H 0.99841 3.95868 3.51284 
H 2.56094 4.15698 2.71078 
H 1.0733 4.57736 1.85996 
H -2.98031 0.72403 3.90997 
H -4.02414 0.2927 2.5645 
H -4.83414 2.61702 2.36672 
H -6.05269 0.9506 3.73871 
H -5.11647 1.41595 5.17045 
H -6.22548 2.57468 4.41556 
H -2.94486 3.91413 3.28753 
H -4.40809 4.2463 4.20931 
H -3.17561 3.17022 4.8837 
H -0.65087 -2.09776 -2.32661 
H 1.00067 -1.52282 -2.31978 
H 0.10477 0.18885 -3.5556 
H -0.11757 0.89255 -1.95526 
H -2.49319 -0.06887 -1.96326 
H -2.20582 -0.62896 -3.60622 
H -1.77232 1.72631 -4.33593 
H -2.03607 2.28947 -2.68357 
H -4.37508 1.39245 -2.74975 
H -4.11391 0.83377 -4.40365 
H -3.67443 3.19197 -5.13067 
H -3.933 3.75053 -3.47639 
H -6.2741 2.85623 -3.54042 
H -6.01582 2.29861 -5.19484 
H -5.58043 4.65951 -5.9225 
H -5.83862 5.21703 -4.26795 
H -7.87773 5.52846 -5.63213 
H -7.92808 3.79653 -6.00336 
H -8.18772 4.35672 -4.33951 
H 0.21435 -4.18311 -0.51637 
H 4.53682 -4.79989 2.47114 
H 4.4101 -3.04773 2.5505 
H 6.76948 -3.83831 2.59525 
H 6.56682 -4.58453 1.00152 
H 6.48222 -2.82031 1.18001 
H 5.70346 -0.42105 -3.25737 
H 6.63933 -1.08615 -1.02235 
H 6.38248 -2.78846 -1.45839 
H 7.48619 -1.78924 -2.40211 
H 4.4507 -2.09416 -4.61677 
H 6.18964 -2.4014 -4.53047 
H 5.07993 -3.3875 -3.5758 
*