!RI BP86 def2-SVP def2/J D3BJ TIGHTSCF TightOpt Grid5 FinalGrid6 freq
%maxcore 950
%pal nprocs 16
end
* xyz 0 1 
O 3.73243 -0.58241 0.11355 
C 3.96754 -1.20153 1.1536 
C 3.95284 -0.56472 2.56321 
C 2.75113 -1.03744 3.38353 
C 1.68432 0.00412 3.06469 
C 2.47812 1.29824 2.97812 
N 3.79288 0.89097 2.50032 
C 4.84127 1.71581 2.14323 
O 5.93532 1.23729 1.82326 
N 4.2356 -2.55551 1.15086 
C 4.51829 -3.31827 -0.07814 
C 3.26932 -3.52365 -0.97628 
N 2.06637 -3.21715 -0.38331 
C 0.79031 -3.2769 -1.09451 
C 0.57493 -2.0356 -1.99708 
N 1.4206 -0.97557 -1.75806 
C 1.36021 0.28317 -2.47386 
C 0.16725 1.17179 -2.06993 
C 0.20429 1.52266 -0.56899 
C 0.63584 2.9227 -0.16934 
N 1.66529 3.47027 -0.89764 
C 2.27464 4.77444 -0.59999 
C 3.0424 4.7024 0.746 
N 3.7505 3.52948 0.91578 
C 4.56228 3.23661 2.09566 
C 5.87367 4.01847 2.06011 
O 3.13873 5.63995 1.53774 
C 1.25774 5.92453 -0.66515 
C 1.87761 7.31273 -0.93341 
C 2.44351 7.43096 -2.35052 
C 0.82079 8.39987 -0.7158 
O 0.17503 3.49315 0.82178 
C -1.12427 1.13007 0.05478 
C -2.34455 1.9847 -0.25684 
C -3.64117 1.17496 -0.28216 
C -3.68684 0.18191 -1.44768 
C -5.00607 -0.59159 -1.46974 
C -5.03932 -1.59574 -2.62322 
C -6.35532 -2.37469 -2.6454 
C -6.38676 -3.38045 -3.79736 
C -7.70158 -4.1595 -3.81942 
C -7.73651 -5.16109 -4.96271 
O -1.20564 0.14037 0.79557 
O 0.17022 2.33036 -2.92047 
O -0.34252 -1.96421 -2.81781 
C -0.379 -3.38802 -0.10983 
C -0.37333 -4.70471 0.6546 
O 3.33335 -3.96181 -2.12591 
C 5.20794 -4.65756 0.27841 
C 4.25466 -5.67055 0.92119 
C 5.91118 -5.2876 -0.92673 
H 4.90043 -0.81335 3.05537 
H 2.99232 -0.99428 4.45274 
H 2.41526 -2.05171 3.14977 
H 1.22826 -0.22593 2.09558 
H 0.89011 0.04695 3.81481 
H 2.01848 2.02707 2.30985 
H 2.60754 1.7536 3.96592 
H 4.40993 -3.01005 2.0434 
H 5.20899 -2.69541 -0.66179 
H 2.08709 -2.85933 0.56757 
H 0.81208 -4.14684 -1.7623 
H 2.15526 -1.09511 -1.05775 
H 1.30927 0.06705 -3.54782 
H 2.30751 0.80689 -2.30425 
H -0.74603 0.61675 -2.31427 
H 0.93819 0.87655 -0.06751 
H 1.87606 3.05534 -1.80309 
H 3.03814 4.89848 -1.37512 
H 3.6292 2.80218 0.2131 
H 4.00075 3.53243 2.98844 
H 5.69502 5.09804 2.08863 
H 6.50499 3.75877 2.91664 
H 6.44126 3.80374 1.14739 
H 0.69966 5.96525 0.27904 
H 0.51769 5.71528 -1.4495 
H 2.692 7.49479 -0.22306 
H 3.28358 6.7488 -2.50762 
H 1.67929 7.20917 -3.10313 
H 2.81344 8.44533 -2.53602 
H 0.43432 8.36744 0.30841 
H 1.24688 9.39569 -0.87799 
H -0.02413 8.2764 -1.40191 
H -2.2098 2.48836 -1.21825 
H -2.41117 2.75658 0.51735 
H -4.48416 1.87116 -0.37008 
H -3.76962 0.63828 0.66557 
H -2.85579 -0.52853 -1.36839 
H -3.56129 0.7213 -2.3944 
H -5.84288 0.11048 -1.56792 
H -5.1372 -1.12126 -0.51831 
H -4.20014 -2.29535 -2.52531 
H -4.90931 -1.06631 -3.57495 
H -7.19448 -1.67549 -2.74494 
H -6.48563 -2.90293 -1.69304 
H -5.54725 -4.07934 -3.69799 
H -6.25647 -2.85247 -4.74989 
H -8.54395 -3.46573 -3.9233 
H -7.8349 -4.69217 -2.87063 
H -8.68514 -5.707 -4.95951 
H -7.63805 -4.65673 -5.92928 
H -6.92486 -5.88986 -4.87078 
H -0.72885 2.71555 -2.87567 
H -1.33063 -3.30178 -0.6486 
H -0.34946 -2.55777 0.60661 
H -1.24316 -4.75893 1.31691 
H -0.41655 -5.55609 -0.03205 
H 0.52467 -4.80507 1.27216 
H 5.99268 -4.43877 1.01628 
H 3.75805 -5.24872 1.80063 
H 3.48186 -6.00206 0.21994 
H 4.80571 -6.559 1.24858 
H 6.58315 -4.56907 -1.4073 
H 6.51512 -6.1452 -0.61023 
H 5.19987 -5.64779 -1.67569 
*