!RI BP86 def2-SVP def2/J D3BJ TIGHTSCF TightOpt Grid5 FinalGrid6 freq
%maxcore 950
%pal nprocs 16
end
* xyz 0 1 
O 5.96544 -2.14851 -0.38733 
C 5.60502 -1.61141 0.66167 
C 6.14144 -0.23577 1.11346 
C 7.53396 -0.38502 1.72902 
C 7.25173 -0.50206 3.2227 
C 6.08795 0.455 3.42511 
N 5.34313 0.40424 2.17465 
C 4.11757 0.96175 1.88567 
O 3.59085 0.70146 0.78971 
N 4.78978 -2.24863 1.56841 
C 4.19199 -3.56263 1.31667 
C 2.88854 -3.37848 0.49978 
N 2.16908 -2.24069 0.7965 
C 0.82378 -2.00707 0.28124 
C 0.86326 -1.27141 -1.07294 
N 1.6468 -0.13708 -1.10235 
C 1.79193 0.73189 -2.25801 
C 0.49514 1.21154 -2.94214 
C -0.58698 1.74168 -1.9852 
C -0.16753 3.01101 -1.27477 
N 0.54974 2.81447 -0.11792 
C 1.02167 3.92387 0.71545 
C 2.32293 3.47712 1.4039 
N 2.19535 2.4165 2.27798 
C 3.33965 1.78429 2.9559 
C 4.13068 2.81728 3.74999 
O 3.40353 4.02152 1.16983 
C -0.06726 4.35686 1.7088 
C 0.33574 5.51148 2.64798 
C -0.79909 5.79205 3.63688 
C 0.68275 6.79037 1.88498 
O -0.46796 4.13685 -1.67324 
C -1.90406 1.93958 -2.72277 
C -3.1407 2.13596 -1.85444 
C -4.44468 1.79024 -2.57158 
C -4.59512 0.28444 -2.80918 
C -5.92082 -0.03816 -3.5012 
C -6.07303 -1.54172 -3.73747 
C -7.39818 -1.86485 -4.42964 
C -7.55015 -3.36836 -4.66617 
C -8.87425 -3.69126 -5.35803 
C -9.02918 -5.18503 -5.59505 
O -1.96601 1.98005 -3.95836 
O 0.85629 2.19827 -3.93131 
O 0.12103 -1.58056 -2.00721 
C -0.01067 -1.19343 1.27889 
C -0.29721 -1.96359 2.56043 
O 2.44313 -4.25553 -0.24345 
C 3.91185 -4.29621 2.65084 
C 3.27438 -5.67305 2.43134 
C 5.1991 -4.47697 3.46582 
H 6.1545 0.41413 0.23062 
H 8.12025 0.52287 1.54092 
H 8.09861 -1.24088 1.34718 
H 6.95061 -1.52584 3.46872 
H 8.1173 -0.24585 3.83994 
H 5.44959 0.18024 4.26873 
H 6.46357 1.47412 3.55704 
H 4.53757 -1.74285 2.41328 
H 4.8846 -4.14332 0.69521 
H 2.64465 -1.49909 1.30362 
H 0.34637 -2.97819 0.10166 
H 2.3027 0.00716 -0.32885 
H 2.4051 0.19521 -2.99224 
H 2.39248 1.59241 -1.94071 
H 0.08269 0.36837 -3.50943 
H -0.79532 0.97495 -1.22945 
H 0.81405 1.86793 0.14772 
H 1.27004 4.75514 0.04616 
H 1.28226 1.9902 2.40058 
H 2.90292 1.05872 3.65252 
H 3.47316 3.58756 4.16912 
H 4.64154 2.35508 4.59915 
H 4.88821 3.31371 3.13535 
H -0.37215 3.49555 2.3179 
H -0.96457 4.64907 1.14641 
H 1.21407 5.21148 3.23224 
H -1.03497 4.8972 4.22255 
H -0.51682 6.5838 4.33898 
H -1.71029 6.10839 3.11775 
H 1.57689 6.65702 1.26878 
H -0.14038 7.09859 1.23157 
H 0.88898 7.61258 2.57883 
H -3.16081 3.18784 -1.54918 
H -3.04517 1.52393 -0.95091 
H -4.50749 2.32586 -3.52635 
H -5.2824 2.13895 -1.95524 
H -4.54462 -0.24453 -1.84962 
H -3.7657 -0.08416 -3.42386 
H -5.97268 0.49151 -4.46023 
H -6.75401 0.32327 -2.8863 
H -6.02073 -2.07138 -2.77845 
H -5.23977 -1.90314 -4.35234 
H -7.45049 -1.33501 -5.38856 
H -8.23148 -1.50366 -3.81468 
H -7.49781 -3.89838 -3.7073 
H -6.71672 -3.72974 -5.28089 
H -8.92988 -3.16706 -6.31919 
H -9.711 -3.33574 -4.74553 
H -9.98261 -5.3933 -6.09053 
H -8.22481 -5.56669 -6.23196 
H -9.01012 -5.73635 -4.64952 
H 0.0209 2.39669 -4.41191 
H -0.9651 -0.91167 0.81703 
H 0.50122 -0.25757 1.53459 
H -0.92574 -1.36448 3.2269 
H -0.82496 -2.89833 2.34617 
H 0.62621 -2.20386 3.0966 
H 3.21502 -3.69749 3.25272 
H 2.27337 -5.5858 1.99848 
H 3.88543 -6.29156 1.76534 
H 3.16381 -6.20737 3.38137 
H 5.62761 -3.51304 3.75436 
H 5.00059 -5.02997 4.3904 
H 5.95382 -5.02999 2.89635 
*