!RI BP86 def2-SVP def2/J D3BJ TIGHTSCF TightOpt Grid5 FinalGrid6 freq
%maxcore 950
%pal nprocs 16
end
* xyz 0 1 
O 6.60723 -1.16067 -0.30879 
C 6.00724 -0.40464 0.4605 
C 6.07605 1.12899 0.32522 
C 7.46969 1.59373 0.76725 
C 7.22793 2.97021 1.36614 
C 5.87768 2.81607 2.04289 
N 5.14934 1.90097 1.17305 
C 3.78658 1.87698 0.95902 
O 3.29099 1.10812 0.12531 
N 5.31926 -0.87871 1.55214 
C 5.19489 -2.30352 1.86121 
C 4.04925 -2.85653 0.97455 
N 4.43035 -3.09964 -0.32798 
C 3.58823 -3.72252 -1.34582 
C 2.39791 -2.79838 -1.70013 
N 1.23011 -3.03331 -1.01271 
C 0.04739 -2.19373 -1.12284 
C 0.11801 -0.98472 -0.16644 
C -1.22227 -0.23098 -0.08453 
C -1.16354 0.98169 0.83762 
N -0.64466 0.7302 2.08484 
C -0.54458 1.73166 3.15378 
C 0.70315 2.62931 2.9632 
N 1.64048 2.15436 2.07706 
C 2.89908 2.83268 1.7818 
C 2.67158 4.1049 0.97064 
O 0.88624 3.66277 3.60941 
C -0.50158 1.00522 4.50788 
C -0.62768 1.89415 5.76155 
C -0.54621 1.02224 7.01877 
C -1.92437 2.70371 5.78079 
O -1.60044 2.09181 0.53271 
C -1.70256 0.19019 -1.46485 
C -3.20974 0.18312 -1.67708 
C -3.6075 0.67658 -3.06625 
C -5.12545 0.65888 -3.24931 
C -5.52378 1.15313 -4.6409 
C -7.04226 1.1356 -4.82393 
C -7.44065 1.62992 -6.21554 
C -8.95913 1.61253 -6.39859 
C -9.35714 2.10667 -7.78914 
C -10.866 2.091 -7.97517 
O -0.91772 0.53817 -2.35417 
O 0.45262 -1.49245 1.15367 
O 2.52083 -1.834 -2.45991 
C 3.21069 -5.17398 -1.01876 
C 4.41925 -6.10186 -1.02986 
O 2.88793 -2.99915 1.36036 
C 4.93388 -2.53446 3.36596 
C 6.00818 -1.86474 4.2328 
C 4.89647 -4.03188 3.696 
H 5.87174 1.39303 -0.71903 
H 8.17716 1.62211 -0.06741 
H 7.88835 0.92756 1.53242 
H 8.0151 3.27884 2.05929 
H 7.16368 3.71518 0.56381 
H 5.97336 2.33329 3.02143 
H 5.37123 3.77571 2.16216 
H 4.7802 -0.21207 2.097 
H 6.12785 -2.80252 1.56865 
H 5.36558 -2.79844 -0.60483 
H 4.20313 -3.74159 -2.25618 
H 1.22761 -3.75188 -0.29281 
H -0.79893 -2.83669 -0.85711 
H -0.0638 -1.88171 -2.16511 
H 0.93004 -0.30964 -0.45992 
H -1.97132 -0.90826 0.34804 
H -0.22409 -0.192 2.23491 
H -1.42517 2.37667 3.07209 
H 1.43706 1.2859 1.58501 
H 3.36479 3.06805 2.74293 
H 2.07803 4.83467 1.53003 
H 3.62054 4.57885 0.69969 
H 2.13476 3.8874 0.03988 
H 0.43698 0.43727 4.57472 
H -1.30687 0.25749 4.52971 
H 0.21556 2.59255 5.79872 
H 0.39383 0.46083 7.04274 
H -0.58841 1.63849 7.92319 
H -1.37224 0.304 7.05957 
H -1.94446 3.44383 4.97545 
H -2.79962 2.05445 5.67207 
H -2.0261 3.25204 6.7237 
H -3.6665 0.82023 -0.91217 
H -3.56286 -0.84397 -1.53219 
H -3.13592 0.04676 -3.8309 
H -3.22877 1.69501 -3.21825 
H -5.59481 1.29188 -2.48641 
H -5.50153 -0.36055 -3.09992 
H -5.05449 0.52009 -5.40382 
H -5.1475 2.17249 -4.79031 
H -7.51152 1.76861 -4.06098 
H -7.41851 0.11624 -4.67454 
H -6.97143 0.99687 -6.97849 
H -7.06432 2.64926 -6.36494 
H -9.42854 2.24535 -5.63553 
H -9.33566 0.59323 -6.2492 
H -8.8938 1.47478 -8.55578 
H -8.98662 3.12698 -7.94208 
H -11.12823 2.44814 -8.97596 
H -11.26493 1.07806 -7.86057 
H -11.35828 2.73934 -7.24328 
H 1.29172 -2.0006 1.03805 
H 2.48431 -5.53797 -1.7556 
H 2.72987 -5.24948 -0.03721 
H 4.10578 -7.13046 -0.82498 
H 4.9164 -6.08802 -2.00496 
H 5.14853 -5.81437 -0.26607 
H 3.9637 -2.09953 3.64005 
H 6.00061 -0.77687 4.11103 
H 5.83544 -2.07259 5.29439 
H 7.00854 -2.22931 3.9754 
H 4.09395 -4.54487 3.15777 
H 5.84277 -4.51807 3.43487 
H 4.72163 -4.18817 4.76605 
*